
This summary file was generated by TurbSim (from OpenFAST-v1.1-dirty) on 12-Oct-2022 at 14:47:13.


Runtime Options:

1501552846  Random seed #1
    RANLUX  Type of random number generator
         F  Output binary HH turbulence parameters?
         F  Output formatted turbulence parameters?
         F  Output AeroDyn HH files?
         T  Output AeroDyn FF files?
         F  Output BLADED FF files?
         F  Output tower data?
         F  Output HAWC FF files?
         F  Output formatted FF files?
         F  Output coherent turbulence time step file?
 0 -  NONE  IEC turbulence models scaled to exact specified standard deviation


Turbine/Model Specifications:

        25  Vertical grid-point matrix dimension
        25  Horizontal grid-point matrix dimension
     0.050  Time step [seconds]
    10.100  Analysis time [seconds]
    10.100  Usable output time [seconds]
   148.735  Hub height [m]
   297.469  Grid height [m]
   297.469  Grid width [m]
     0.000  Vertical flow angle [degrees]
     0.000  Horizontal flow angle [degrees]


Meteorological Boundary Conditions:

    IECKAI  IEC Kaimal spectral model
         1  IEC standard: IEC 61400-1 Ed. 3: 2005
         B  IEC turbulence characteristic
       NTM  IEC Normal Turbulence Model
       N/A  IEC Extreme Turbulence Model (ETM) "c" parameter [m/s]
       PL   Wind profile type
   142.000  Reference height [m]
    16.000  Reference wind speed [m/s]
       N/A  Jet height [m]
     0.200  Power law exponent
     0.030  Surface roughness length [m]


Non-IEC Meteorological Boundary Conditions:

       N/A  Site latitude [degrees]
       N/A  Gradient Richardson number
       N/A  Friction or shear velocity [m/s]
       N/A  Mixing layer depth [m]
       N/A  Mean hub u'w' Reynolds stress
       N/A  Mean hub u'v' Reynolds stress
       N/A  Mean hub v'w' Reynolds stress


Spatial Coherence Models:

       IEC  u-component coherence model
      NONE  v-component coherence model
      NONE  w-component coherence model
(   12.000, 0.353E-03)  u-component coherence parameters
                   N/A  v-component coherence parameters
                   N/A  w-component coherence parameters
       N/A  Coherence exponent


You have requested that the following file(s) be generated:

   IEA15_NTM_U16.000000_Seed1501552846.0.bts (AeroDyn/TurbSim full-field wind file)


Turbulence Simulation Scaling Parameter Summary:

   Turbulence model used                            =  IEC Kaimal
   Turbulence characteristic                        =  B
   IEC turbulence type                              =  Normal Turbulence Model
   IEC standard                                     =  IEC 61400-1 Ed. 3: 2005
   Mean wind speed at hub height                    =   16.149 m/s
   Expected value of turbulence intensity at 15 m/s =   14.000%
   Characteristic value of standard deviation       =    2.480 m/s
   Turbulence scale                                 =   42.000 m
   u-component integral scale                       =  340.200 m
   Coherency scale                                  =  340.200 m
   Characteristic value of hub turbulence intensity =   15.355%
   Gradient Richardson number                       =    0.000

   Wind profile type                                =  Power law
   Power law exponent                               =    0.200
   Mean shear across rotor disk                     =    0.058 (m/s)/m
   Assumed rotor diameter                           =  297.469 m
   Surface roughness length                         =    0.030 m

   Nyquist frequency of turbulent wind field        =   10.000 Hz

   Number of time steps in the FFT                  =      204
   Number of time steps output                      =      204
   Number of points simulated                       =      625


Mean Flow Angles:

   Vertical   =   0.0 degrees
   Horizontal =   0.0 degrees

Mean Wind Speed Profile:

   Height    Wind Speed   Horizontal Angle  Vertical Angle  U-comp (X)   V-comp (Y)   W-comp (Z)
     (m)        (m/s)         (degrees)       (degrees)       (m/s)        (m/s)        (m/s)   
   ------    ----------   ----------------  --------------  ----------   ----------   ----------
    297.5       18.55            0.00            0.00         18.55         0.00         0.00
    285.1       18.39            0.00            0.00         18.39         0.00         0.00
    272.7       18.23            0.00            0.00         18.23         0.00         0.00
    260.3       18.06            0.00            0.00         18.06         0.00         0.00
    247.9       17.89            0.00            0.00         17.89         0.00         0.00
    235.5       17.70            0.00            0.00         17.70         0.00         0.00
    223.1       17.51            0.00            0.00         17.51         0.00         0.00
    210.7       17.31            0.00            0.00         17.31         0.00         0.00
    198.3       17.11            0.00            0.00         17.11         0.00         0.00
    185.9       16.89            0.00            0.00         16.89         0.00         0.00
    173.5       16.65            0.00            0.00         16.65         0.00         0.00
    161.1       16.41            0.00            0.00         16.41         0.00         0.00
    148.7       16.15            0.00            0.00         16.15         0.00         0.00
    136.3       15.87            0.00            0.00         15.87         0.00         0.00
    123.9       15.57            0.00            0.00         15.57         0.00         0.00
    111.6       15.25            0.00            0.00         15.25         0.00         0.00
     99.2       14.89            0.00            0.00         14.89         0.00         0.00
     86.8       14.50            0.00            0.00         14.50         0.00         0.00
     74.4       14.06            0.00            0.00         14.06         0.00         0.00
     62.0       13.56            0.00            0.00         13.56         0.00         0.00
     49.6       12.96            0.00            0.00         12.96         0.00         0.00
     37.2       12.24            0.00            0.00         12.24         0.00         0.00
     24.8       11.29            0.00            0.00         11.29         0.00         0.00
     12.4        9.82            0.00            0.00          9.82         0.00         0.00
      0.0        1.29            0.00            0.00          1.29         0.00         0.00


Harvested Random Seeds after Generation of the Random Numbers:

      1776882 K 1
            0 K 2


Hub-Height Simulated Turbulence Statistical Summary:

   Type of Wind        Min (m/s)   Mean (m/s)    Max (m/s)  Sigma (m/s)       TI (%)
   ----------------    ---------   ----------    ---------  -----------       ------
   Longitudinal (u)        13.15        16.15        19.46        1.190        7.366
   Lateral (v)             -3.34        -0.00         3.06        1.296        8.028
   Vertical (w)            -1.95        -0.00         2.61        1.039        6.432
   U component             13.15        16.15        19.46        1.190        7.366
   V component             -3.34        -0.00         3.06        1.296        8.028
   W component             -1.95        -0.00         2.61        1.039        6.432
   Horizontal (U&V)        13.16        16.20        19.53        1.207        7.452
   Total                   13.24        16.23        19.54        1.199        7.387

                       Min Reynolds     Mean Reynolds    Max Reynolds    Correlation
   Product             Stress (m/s)^2   Stress (m/s)^2   Stress (m/s)^2  Coefficient
   ----------------    --------------   --------------   --------------  -----------
   u'w'                     -4.241             0.473             4.433         0.383
   u'v'                     -3.389             0.164             5.554         0.106
   v'w'                     -5.614             0.030             3.656         0.023


   Friction Velocity (Ustar)  =      0.688 m/s
   Maximum Instantaneous TKE  =      7.148 (m/s)^2
   Maximum Instantaneous CTKE =      3.093 (m/s)^2


Grid Point Variance Summary:

   Y-coord -148.73 -136.34 -123.95 -111.55  -99.16  -86.76  -74.37  -61.97  -49.58  -37.18  -24.79  -12.39    0.00   12.39   24.79   37.18   49.58   61.97   74.37   86.76   99.16  111.55  123.95  136.34  148.73

   Height   Standard deviation at grid points for the u component:
   297.47    1.291   1.142   1.245   0.958   1.077   1.016   1.159   1.232   1.132   0.958   0.987   1.088   1.313   0.989   1.320   1.544   1.555   1.144   0.844   1.270   1.101   1.305   1.365   1.312   0.910
   285.07    1.153   1.110   1.340   1.138   1.240   0.939   1.198   0.974   1.151   1.300   1.382   0.875   1.073   1.256   1.290   1.321   1.336   0.853   1.251   1.462   0.938   1.261   1.329   1.449   1.119
   272.68    1.145   1.116   1.539   1.763   1.161   1.029   1.220   1.318   0.959   1.103   1.185   1.123   1.272   1.682   0.880   1.133   1.287   1.217   1.120   1.243   1.075   1.383   1.746   1.837   1.333
   260.29    0.965   1.353   1.373   1.508   1.559   1.341   1.228   1.155   1.361   0.900   1.344   0.883   1.301   1.449   1.606   0.907   1.160   1.321   1.306   1.009   1.198   1.359   1.465   1.449   1.458
   247.89    1.392   1.619   1.624   1.284   1.048   1.066   1.051   1.373   1.400   1.109   1.087   1.130   0.957   1.128   1.317   1.603   1.057   1.108   1.160   1.131   1.125   1.265   1.168   1.194   1.164
   235.50    1.099   1.412   1.182   1.246   1.096   1.070   1.434   1.547   0.981   1.119   1.019   1.186   1.260   1.089   1.309   1.357   1.356   1.294   1.154   1.203   1.232   0.906   1.430   1.344   0.903
   223.10    1.498   1.109   0.979   1.078   1.126   1.136   1.166   1.148   1.198   0.921   1.145   1.025   1.024   1.300   1.480   1.198   1.032   1.150   1.020   1.075   1.075   1.188   1.269   1.111   1.081
   210.71    1.428   1.295   1.168   1.413   0.897   1.175   1.258   1.086   1.094   1.128   1.078   1.271   1.110   1.307   1.032   1.122   0.951   0.963   1.164   1.187   1.055   0.980   0.996   1.279   1.558
   198.31    1.515   1.367   1.285   1.398   1.193   1.008   1.242   1.182   0.966   1.119   1.061   0.985   0.956   1.148   1.321   1.589   1.698   0.896   1.255   0.929   1.135   1.119   0.888   1.411   1.688
   185.92    1.387   1.354   1.005   1.035   1.255   0.901   0.988   1.146   1.055   1.038   1.062   1.201   1.099   0.959   1.314   1.239   1.336   1.403   1.171   1.255   0.930   1.250   1.324   1.539   1.562
   173.52    1.340   1.452   0.968   1.079   1.252   1.285   1.425   1.039   1.377   1.166   1.162   1.104   1.182   1.025   1.015   1.018   1.060   1.163   1.019   0.968   1.166   1.297   0.979   1.077   1.139
   161.13    1.104   1.092   1.105   1.358   0.998   1.021   0.996   1.342   1.397   1.286   1.313   1.066   0.998   0.927   0.980   1.218   1.206   1.065   1.176   1.089   1.151   1.166   0.910   1.091   1.083
   148.73    1.053   1.252   1.329   1.401   1.405   1.041   1.168   1.270   1.196   0.974   1.191   1.296   1.190   0.974   1.166   1.307   0.945   1.019   1.238   0.873   0.939   1.233   1.637   1.657   1.020
   136.34    1.228   1.262   1.133   1.247   1.280   1.093   1.132   0.967   1.350   1.181   0.959   1.077   1.082   0.936   1.424   0.924   1.100   0.912   1.215   1.190   1.330   1.126   1.359   1.360   1.243
   123.95    1.263   0.962   1.266   1.085   1.038   1.303   0.859   1.340   1.444   1.278   0.879   1.155   1.464   1.621   1.433   1.231   1.070   1.014   1.053   1.211   0.962   0.917   1.310   1.027   0.954
   111.55    1.192   1.077   1.218   1.120   1.267   0.990   1.130   1.359   1.283   1.443   1.293   1.057   1.193   1.485   0.948   1.252   1.008   1.098   0.972   1.149   0.969   1.200   1.143   1.402   1.574
    99.16    1.175   0.994   1.101   1.003   1.189   1.257   1.012   1.306   1.309   1.442   1.053   1.074   1.010   1.112   1.523   0.863   1.108   1.184   0.976   1.298   1.101   1.493   0.998   1.143   1.138
    86.76    1.118   0.987   0.966   1.079   1.063   1.001   1.114   1.213   0.956   1.365   1.489   0.869   1.280   1.268   1.266   1.324   1.497   1.109   0.904   1.225   1.567   1.198   1.204   1.056   1.046
    74.37    1.178   1.058   1.132   1.291   0.918   1.183   1.030   1.075   1.038   1.233   1.228   1.219   1.132   0.941   1.135   1.047   0.981   1.251   1.337   1.057   1.504   1.007   1.001   1.255   0.948
    61.97    1.048   1.121   1.145   1.237   1.279   1.022   1.323   1.253   0.870   0.938   0.999   1.223   1.268   1.414   1.468   0.836   1.083   1.141   1.375   1.089   1.337   1.543   1.305   1.588   1.632
    49.58    1.354   1.084   1.183   1.018   0.995   1.017   1.066   1.129   1.391   1.516   1.114   1.269   1.304   1.370   1.094   1.027   1.053   0.999   1.166   0.991   1.126   1.280   0.888   1.424   1.480
    37.18    1.186   1.132   0.954   1.000   1.075   1.054   1.075   1.371   1.009   1.396   0.954   1.349   0.942   1.235   0.986   1.211   1.250   1.538   0.924   1.189   0.945   1.153   1.531   1.631   1.326
    24.79    1.068   1.123   1.237   0.986   1.321   1.268   1.027   1.274   1.002   1.116   1.197   1.098   1.343   0.907   1.289   1.637   0.936   1.204   1.310   1.167   1.284   1.035   1.149   1.320   1.252
    12.40    1.209   0.873   1.082   1.177   1.402   1.227   1.301   1.118   0.973   1.083   0.980   1.085   1.251   1.120   1.461   1.207   1.409   1.134   1.144   1.168   1.226   1.116   0.974   1.057   1.126
     0.00    1.205   1.366   1.140   1.095   1.064   0.983   1.169   1.021   1.102   1.357   1.215   1.142   1.325   0.930   1.285   1.252   1.184   1.018   1.252   1.152   1.004   1.083   1.154   1.016   1.096

   Height   Standard deviation at grid points for the v component:
   297.47    1.296   1.296   1.296   1.296   1.296   1.296   1.296   1.296   1.296   1.296   1.296   1.296   1.296   1.296   1.296   1.296   1.296   1.296   1.296   1.296   1.296   1.296   1.296   1.296   1.296
   285.07    1.296   1.296   1.296   1.296   1.296   1.296   1.296   1.296   1.296   1.296   1.296   1.296   1.296   1.296   1.296   1.296   1.296   1.296   1.296   1.296   1.296   1.296   1.296   1.296   1.296
   272.68    1.296   1.296   1.296   1.296   1.296   1.296   1.296   1.296   1.296   1.296   1.296   1.296   1.296   1.296   1.296   1.296   1.296   1.296   1.296   1.296   1.296   1.296   1.296   1.296   1.296
   260.29    1.296   1.296   1.296   1.296   1.296   1.296   1.296   1.296   1.296   1.296   1.296   1.296   1.296   1.296   1.296   1.296   1.296   1.296   1.296   1.296   1.296   1.296   1.296   1.296   1.296
   247.89    1.296   1.296   1.296   1.296   1.296   1.296   1.296   1.296   1.296   1.296   1.296   1.296   1.296   1.296   1.296   1.296   1.296   1.296   1.296   1.296   1.296   1.296   1.296   1.296   1.296
   235.50    1.296   1.296   1.296   1.296   1.296   1.296   1.296   1.296   1.296   1.296   1.296   1.296   1.296   1.296   1.296   1.296   1.296   1.296   1.296   1.296   1.296   1.296   1.296   1.296   1.296
   223.10    1.296   1.296   1.296   1.296   1.296   1.296   1.296   1.296   1.296   1.296   1.296   1.296   1.296   1.296   1.296   1.296   1.296   1.296   1.296   1.296   1.296   1.296   1.296   1.296   1.296
   210.71    1.296   1.296   1.296   1.296   1.296   1.296   1.296   1.296   1.296   1.296   1.296   1.296   1.296   1.296   1.296   1.296   1.296   1.296   1.296   1.296   1.296   1.296   1.296   1.296   1.296
   198.31    1.296   1.296   1.296   1.296   1.296   1.296   1.296   1.296   1.296   1.296   1.296   1.296   1.296   1.296   1.296   1.296   1.296   1.296   1.296   1.296   1.296   1.296   1.296   1.296   1.296
   185.92    1.296   1.296   1.296   1.296   1.296   1.296   1.296   1.296   1.296   1.296   1.296   1.296   1.296   1.296   1.296   1.296   1.296   1.296   1.296   1.296   1.296   1.296   1.296   1.296   1.296
   173.52    1.296   1.296   1.296   1.296   1.296   1.296   1.296   1.296   1.296   1.296   1.296   1.296   1.296   1.296   1.296   1.296   1.296   1.296   1.296   1.296   1.296   1.296   1.296   1.296   1.296
   161.13    1.296   1.296   1.296   1.296   1.296   1.296   1.296   1.296   1.296   1.296   1.296   1.296   1.296   1.296   1.296   1.296   1.296   1.296   1.296   1.296   1.296   1.296   1.296   1.296   1.296
   148.73    1.296   1.296   1.296   1.296   1.296   1.296   1.296   1.296   1.296   1.296   1.296   1.296   1.296   1.296   1.296   1.296   1.296   1.296   1.296   1.296   1.296   1.296   1.296   1.296   1.296
   136.34    1.296   1.296   1.296   1.296   1.296   1.296   1.296   1.296   1.296   1.296   1.296   1.296   1.296   1.296   1.296   1.296   1.296   1.296   1.296   1.296   1.296   1.296   1.296   1.296   1.296
   123.95    1.296   1.296   1.296   1.296   1.296   1.296   1.296   1.296   1.296   1.296   1.296   1.296   1.296   1.296   1.296   1.296   1.296   1.296   1.296   1.296   1.296   1.296   1.296   1.296   1.296
   111.55    1.296   1.296   1.296   1.296   1.296   1.296   1.296   1.296   1.296   1.296   1.296   1.296   1.296   1.296   1.296   1.296   1.296   1.296   1.296   1.296   1.296   1.296   1.296   1.296   1.296
    99.16    1.296   1.296   1.296   1.296   1.296   1.296   1.296   1.296   1.296   1.296   1.296   1.296   1.296   1.296   1.296   1.296   1.296   1.296   1.296   1.296   1.296   1.296   1.296   1.296   1.296
    86.76    1.296   1.296   1.296   1.296   1.296   1.296   1.296   1.296   1.296   1.296   1.296   1.296   1.296   1.296   1.296   1.296   1.296   1.296   1.296   1.296   1.296   1.296   1.296   1.296   1.296
    74.37    1.296   1.296   1.296   1.296   1.296   1.296   1.296   1.296   1.296   1.296   1.296   1.296   1.296   1.296   1.296   1.296   1.296   1.296   1.296   1.296   1.296   1.296   1.296   1.296   1.296
    61.97    1.296   1.296   1.296   1.296   1.296   1.296   1.296   1.296   1.296   1.296   1.296   1.296   1.296   1.296   1.296   1.296   1.296   1.296   1.296   1.296   1.296   1.296   1.296   1.296   1.296
    49.58    1.296   1.296   1.296   1.296   1.296   1.296   1.296   1.296   1.296   1.296   1.296   1.296   1.296   1.296   1.296   1.296   1.296   1.296   1.296   1.296   1.296   1.296   1.296   1.296   1.296
    37.18    1.296   1.296   1.296   1.296   1.296   1.296   1.296   1.296   1.296   1.296   1.296   1.296   1.296   1.296   1.296   1.296   1.296   1.296   1.296   1.296   1.296   1.296   1.296   1.296   1.296
    24.79    1.296   1.296   1.296   1.296   1.296   1.296   1.296   1.296   1.296   1.296   1.296   1.296   1.296   1.296   1.296   1.296   1.296   1.296   1.296   1.296   1.296   1.296   1.296   1.296   1.296
    12.40    1.296   1.296   1.296   1.296   1.296   1.296   1.296   1.296   1.296   1.296   1.296   1.296   1.296   1.296   1.296   1.296   1.296   1.296   1.296   1.296   1.296   1.296   1.296   1.296   1.296
     0.00    1.296   1.296   1.296   1.296   1.296   1.296   1.296   1.296   1.296   1.296   1.296   1.296   1.296   1.296   1.296   1.296   1.296   1.296   1.296   1.296   1.296   1.296   1.296   1.296   1.296

   Height   Standard deviation at grid points for the w component:
   297.47    1.039   1.039   1.039   1.039   1.039   1.039   1.039   1.039   1.039   1.039   1.039   1.039   1.039   1.039   1.039   1.039   1.039   1.039   1.039   1.039   1.039   1.039   1.039   1.039   1.039
   285.07    1.039   1.039   1.039   1.039   1.039   1.039   1.039   1.039   1.039   1.039   1.039   1.039   1.039   1.039   1.039   1.039   1.039   1.039   1.039   1.039   1.039   1.039   1.039   1.039   1.039
   272.68    1.039   1.039   1.039   1.039   1.039   1.039   1.039   1.039   1.039   1.039   1.039   1.039   1.039   1.039   1.039   1.039   1.039   1.039   1.039   1.039   1.039   1.039   1.039   1.039   1.039
   260.29    1.039   1.039   1.039   1.039   1.039   1.039   1.039   1.039   1.039   1.039   1.039   1.039   1.039   1.039   1.039   1.039   1.039   1.039   1.039   1.039   1.039   1.039   1.039   1.039   1.039
   247.89    1.039   1.039   1.039   1.039   1.039   1.039   1.039   1.039   1.039   1.039   1.039   1.039   1.039   1.039   1.039   1.039   1.039   1.039   1.039   1.039   1.039   1.039   1.039   1.039   1.039
   235.50    1.039   1.039   1.039   1.039   1.039   1.039   1.039   1.039   1.039   1.039   1.039   1.039   1.039   1.039   1.039   1.039   1.039   1.039   1.039   1.039   1.039   1.039   1.039   1.039   1.039
   223.10    1.039   1.039   1.039   1.039   1.039   1.039   1.039   1.039   1.039   1.039   1.039   1.039   1.039   1.039   1.039   1.039   1.039   1.039   1.039   1.039   1.039   1.039   1.039   1.039   1.039
   210.71    1.039   1.039   1.039   1.039   1.039   1.039   1.039   1.039   1.039   1.039   1.039   1.039   1.039   1.039   1.039   1.039   1.039   1.039   1.039   1.039   1.039   1.039   1.039   1.039   1.039
   198.31    1.039   1.039   1.039   1.039   1.039   1.039   1.039   1.039   1.039   1.039   1.039   1.039   1.039   1.039   1.039   1.039   1.039   1.039   1.039   1.039   1.039   1.039   1.039   1.039   1.039
   185.92    1.039   1.039   1.039   1.039   1.039   1.039   1.039   1.039   1.039   1.039   1.039   1.039   1.039   1.039   1.039   1.039   1.039   1.039   1.039   1.039   1.039   1.039   1.039   1.039   1.039
   173.52    1.039   1.039   1.039   1.039   1.039   1.039   1.039   1.039   1.039   1.039   1.039   1.039   1.039   1.039   1.039   1.039   1.039   1.039   1.039   1.039   1.039   1.039   1.039   1.039   1.039
   161.13    1.039   1.039   1.039   1.039   1.039   1.039   1.039   1.039   1.039   1.039   1.039   1.039   1.039   1.039   1.039   1.039   1.039   1.039   1.039   1.039   1.039   1.039   1.039   1.039   1.039
   148.73    1.039   1.039   1.039   1.039   1.039   1.039   1.039   1.039   1.039   1.039   1.039   1.039   1.039   1.039   1.039   1.039   1.039   1.039   1.039   1.039   1.039   1.039   1.039   1.039   1.039
   136.34    1.039   1.039   1.039   1.039   1.039   1.039   1.039   1.039   1.039   1.039   1.039   1.039   1.039   1.039   1.039   1.039   1.039   1.039   1.039   1.039   1.039   1.039   1.039   1.039   1.039
   123.95    1.039   1.039   1.039   1.039   1.039   1.039   1.039   1.039   1.039   1.039   1.039   1.039   1.039   1.039   1.039   1.039   1.039   1.039   1.039   1.039   1.039   1.039   1.039   1.039   1.039
   111.55    1.039   1.039   1.039   1.039   1.039   1.039   1.039   1.039   1.039   1.039   1.039   1.039   1.039   1.039   1.039   1.039   1.039   1.039   1.039   1.039   1.039   1.039   1.039   1.039   1.039
    99.16    1.039   1.039   1.039   1.039   1.039   1.039   1.039   1.039   1.039   1.039   1.039   1.039   1.039   1.039   1.039   1.039   1.039   1.039   1.039   1.039   1.039   1.039   1.039   1.039   1.039
    86.76    1.039   1.039   1.039   1.039   1.039   1.039   1.039   1.039   1.039   1.039   1.039   1.039   1.039   1.039   1.039   1.039   1.039   1.039   1.039   1.039   1.039   1.039   1.039   1.039   1.039
    74.37    1.039   1.039   1.039   1.039   1.039   1.039   1.039   1.039   1.039   1.039   1.039   1.039   1.039   1.039   1.039   1.039   1.039   1.039   1.039   1.039   1.039   1.039   1.039   1.039   1.039
    61.97    1.039   1.039   1.039   1.039   1.039   1.039   1.039   1.039   1.039   1.039   1.039   1.039   1.039   1.039   1.039   1.039   1.039   1.039   1.039   1.039   1.039   1.039   1.039   1.039   1.039
    49.58    1.039   1.039   1.039   1.039   1.039   1.039   1.039   1.039   1.039   1.039   1.039   1.039   1.039   1.039   1.039   1.039   1.039   1.039   1.039   1.039   1.039   1.039   1.039   1.039   1.039
    37.18    1.039   1.039   1.039   1.039   1.039   1.039   1.039   1.039   1.039   1.039   1.039   1.039   1.039   1.039   1.039   1.039   1.039   1.039   1.039   1.039   1.039   1.039   1.039   1.039   1.039
    24.79    1.039   1.039   1.039   1.039   1.039   1.039   1.039   1.039   1.039   1.039   1.039   1.039   1.039   1.039   1.039   1.039   1.039   1.039   1.039   1.039   1.039   1.039   1.039   1.039   1.039
    12.40    1.039   1.039   1.039   1.039   1.039   1.039   1.039   1.039   1.039   1.039   1.039   1.039   1.039   1.039   1.039   1.039   1.039   1.039   1.039   1.039   1.039   1.039   1.039   1.039   1.039
     0.00    1.039   1.039   1.039   1.039   1.039   1.039   1.039   1.039   1.039   1.039   1.039   1.039   1.039   1.039   1.039   1.039   1.039   1.039   1.039   1.039   1.039   1.039   1.039   1.039   1.039

   Mean standard deviation across all grid points:
      u component:    1.182 m/s
      v component:    1.296 m/s
      w component:    1.039 m/s


U-component (X) statistics from the interpolated hub point:

   Mean =  16.1490 m/s
   TI   =   7.3664 %


Processing complete.  1.5094 CPU seconds used.
