
This summary file was generated by TurbSim (from OpenFAST-v1.1-dirty) on 12-Oct-2022 at 14:47:14.


Runtime Options:

 488200390  Random seed #1
    RANLUX  Type of random number generator
         F  Output binary HH turbulence parameters?
         F  Output formatted turbulence parameters?
         F  Output AeroDyn HH files?
         T  Output AeroDyn FF files?
         F  Output BLADED FF files?
         F  Output tower data?
         F  Output HAWC FF files?
         F  Output formatted FF files?
         F  Output coherent turbulence time step file?
 0 -  NONE  IEC turbulence models scaled to exact specified standard deviation


Turbine/Model Specifications:

        25  Vertical grid-point matrix dimension
        25  Horizontal grid-point matrix dimension
     0.050  Time step [seconds]
    10.100  Analysis time [seconds]
    10.100  Usable output time [seconds]
   148.735  Hub height [m]
   297.469  Grid height [m]
   297.469  Grid width [m]
     0.000  Vertical flow angle [degrees]
     0.000  Horizontal flow angle [degrees]


Meteorological Boundary Conditions:

    IECKAI  IEC Kaimal spectral model
         1  IEC standard: IEC 61400-1 Ed. 3: 2005
     0.120  Percent turbulence intensity, IEC 61400-1 Ed. 3: 2005
       NTM  IEC Normal Turbulence Model
       N/A  IEC Extreme Turbulence Model (ETM) "c" parameter [m/s]
       PL   Wind profile type
   142.000  Reference height [m]
    46.789  Reference wind speed [m/s]
       N/A  Jet height [m]
     0.140  Power law exponent
     0.030  Surface roughness length [m]


Non-IEC Meteorological Boundary Conditions:

       N/A  Site latitude [degrees]
       N/A  Gradient Richardson number
       N/A  Friction or shear velocity [m/s]
       N/A  Mixing layer depth [m]
       N/A  Mean hub u'w' Reynolds stress
       N/A  Mean hub u'v' Reynolds stress
       N/A  Mean hub v'w' Reynolds stress


Spatial Coherence Models:

       IEC  u-component coherence model
      NONE  v-component coherence model
      NONE  w-component coherence model
(   12.000, 0.353E-03)  u-component coherence parameters
                   N/A  v-component coherence parameters
                   N/A  w-component coherence parameters
       N/A  Coherence exponent


You have requested that the following file(s) be generated:

   IEA15_NTM_U46.789000_Seed488200390.0.bts (AeroDyn/TurbSim full-field wind file)


Turbulence Simulation Scaling Parameter Summary:

   Turbulence model used                            =  IEC Kaimal
   Turbulence characteristic                        =  User-specified
   IEC standard                                     =  IEC 61400-1 Ed. 3: 2005
   Mean wind speed at hub height                    =   47.094 m/s
   Characteristic value of standard deviation       =    0.057 m/s
   Turbulence scale                                 =   42.000 m
   u-component integral scale                       =  340.200 m
   Coherency scale                                  =  340.200 m
   Characteristic value of hub turbulence intensity =    0.120%
   Gradient Richardson number                       =    0.000

   Wind profile type                                =  Power law
   Power law exponent                               =    0.140
   Mean shear across rotor disk                     =    0.147 (m/s)/m
   Assumed rotor diameter                           =  297.469 m
   Surface roughness length                         =    0.030 m

   Nyquist frequency of turbulent wind field        =   10.000 Hz

   Number of time steps in the FFT                  =      204
   Number of time steps output                      =      204
   Number of points simulated                       =      625


Mean Flow Angles:

   Vertical   =   0.0 degrees
   Horizontal =   0.0 degrees

Mean Wind Speed Profile:

   Height    Wind Speed   Horizontal Angle  Vertical Angle  U-comp (X)   V-comp (Y)   W-comp (Z)
     (m)        (m/s)         (degrees)       (degrees)       (m/s)        (m/s)        (m/s)   
   ------    ----------   ----------------  --------------  ----------   ----------   ----------
    297.5       51.89            0.00            0.00         51.89         0.00         0.00
    285.1       51.58            0.00            0.00         51.58         0.00         0.00
    272.7       51.26            0.00            0.00         51.26         0.00         0.00
    260.3       50.93            0.00            0.00         50.93         0.00         0.00
    247.9       50.58            0.00            0.00         50.58         0.00         0.00
    235.5       50.22            0.00            0.00         50.22         0.00         0.00
    223.1       49.84            0.00            0.00         49.84         0.00         0.00
    210.7       49.45            0.00            0.00         49.45         0.00         0.00
    198.3       49.03            0.00            0.00         49.03         0.00         0.00
    185.9       48.59            0.00            0.00         48.59         0.00         0.00
    173.5       48.12            0.00            0.00         48.12         0.00         0.00
    161.1       47.62            0.00            0.00         47.62         0.00         0.00
    148.7       47.09            0.00            0.00         47.09         0.00         0.00
    136.3       46.52            0.00            0.00         46.52         0.00         0.00
    123.9       45.91            0.00            0.00         45.91         0.00         0.00
    111.6       45.23            0.00            0.00         45.23         0.00         0.00
     99.2       44.49            0.00            0.00         44.49         0.00         0.00
     86.8       43.67            0.00            0.00         43.67         0.00         0.00
     74.4       42.74            0.00            0.00         42.74         0.00         0.00
     62.0       41.66            0.00            0.00         41.66         0.00         0.00
     49.6       40.38            0.00            0.00         40.38         0.00         0.00
     37.2       38.79            0.00            0.00         38.79         0.00         0.00
     24.8       36.65            0.00            0.00         36.65         0.00         0.00
     12.4       33.26            0.00            0.00         33.26         0.00         0.00
      0.0        8.04            0.00            0.00          8.04         0.00         0.00


Harvested Random Seeds after Generation of the Random Numbers:

      1776882 K 1
            0 K 2


Hub-Height Simulated Turbulence Statistical Summary:

   Type of Wind        Min (m/s)   Mean (m/s)    Max (m/s)  Sigma (m/s)       TI (%)
   ----------------    ---------   ----------    ---------  -----------       ------
   Longitudinal (u)        47.01        47.09        47.16        0.032        0.067
   Lateral (v)             -0.09         0.00         0.07        0.036        0.077
   Vertical (w)            -0.06        -0.00         0.07        0.025        0.054
   U component             47.01        47.09        47.16        0.032        0.067
   V component             -0.09         0.00         0.07        0.036        0.077
   W component             -0.06        -0.00         0.07        0.025        0.054
   Horizontal (U&V)        47.01        47.09        47.16        0.032        0.067
   Total                   47.01        47.09        47.16        0.032        0.067

                       Min Reynolds     Mean Reynolds    Max Reynolds    Correlation
   Product             Stress (m/s)^2   Stress (m/s)^2   Stress (m/s)^2  Coefficient
   ----------------    --------------   --------------   --------------  -----------
   u'w'                     -0.001             0.000             0.003         0.428
   u'v'                     -0.003             0.000             0.006         0.190
   v'w'                     -0.003             0.000             0.003         0.126


   Friction Velocity (Ustar)  =      0.019 m/s
   Maximum Instantaneous TKE  =      0.006 (m/s)^2
   Maximum Instantaneous CTKE =      0.003 (m/s)^2


Grid Point Variance Summary:

   Y-coord -148.73 -136.34 -123.95 -111.55  -99.16  -86.76  -74.37  -61.97  -49.58  -37.18  -24.79  -12.39    0.00   12.39   24.79   37.18   49.58   61.97   74.37   86.76   99.16  111.55  123.95  136.34  148.73

   Height   Standard deviation at grid points for the u component:
   297.47    0.027   0.025   0.033   0.036   0.027   0.030   0.031   0.036   0.029   0.027   0.039   0.034   0.047   0.042   0.030   0.040   0.031   0.028   0.038   0.047   0.039   0.038   0.044   0.035   0.048
   285.07    0.030   0.028   0.029   0.029   0.025   0.031   0.030   0.033   0.030   0.047   0.041   0.046   0.046   0.032   0.028   0.042   0.051   0.027   0.043   0.050   0.047   0.041   0.044   0.044   0.048
   272.68    0.034   0.036   0.034   0.033   0.039   0.038   0.031   0.040   0.038   0.049   0.054   0.044   0.040   0.044   0.028   0.028   0.031   0.037   0.039   0.042   0.039   0.033   0.032   0.036   0.035
   260.29    0.036   0.050   0.047   0.053   0.035   0.033   0.030   0.039   0.035   0.040   0.050   0.052   0.031   0.044   0.031   0.027   0.026   0.029   0.032   0.032   0.042   0.034   0.036   0.032   0.033
   247.89    0.033   0.047   0.057   0.057   0.043   0.052   0.035   0.035   0.044   0.045   0.046   0.037   0.040   0.043   0.032   0.031   0.035   0.025   0.033   0.047   0.040   0.052   0.056   0.041   0.035
   235.50    0.048   0.044   0.048   0.052   0.058   0.057   0.039   0.032   0.038   0.043   0.043   0.039   0.034   0.029   0.030   0.030   0.029   0.026   0.029   0.036   0.040   0.043   0.043   0.034   0.035
   223.10    0.040   0.038   0.046   0.057   0.045   0.053   0.047   0.044   0.028   0.034   0.029   0.028   0.025   0.033   0.037   0.028   0.037   0.038   0.040   0.036   0.031   0.036   0.033   0.024   0.035
   210.71    0.041   0.034   0.033   0.044   0.054   0.051   0.026   0.032   0.031   0.028   0.029   0.027   0.028   0.025   0.028   0.034   0.033   0.046   0.048   0.049   0.037   0.036   0.031   0.037   0.038
   198.31    0.041   0.045   0.039   0.042   0.043   0.048   0.029   0.033   0.032   0.039   0.036   0.035   0.026   0.035   0.031   0.034   0.025   0.039   0.040   0.046   0.050   0.037   0.037   0.044   0.028
   185.92    0.029   0.039   0.050   0.035   0.042   0.034   0.036   0.032   0.034   0.034   0.031   0.031   0.025   0.029   0.029   0.032   0.031   0.042   0.039   0.045   0.040   0.047   0.039   0.047   0.034
   173.52    0.032   0.030   0.037   0.038   0.039   0.029   0.038   0.046   0.044   0.033   0.030   0.032   0.035   0.028   0.027   0.037   0.047   0.049   0.041   0.035   0.039   0.035   0.032   0.040   0.038
   161.13    0.034   0.035   0.030   0.028   0.028   0.028   0.038   0.044   0.037   0.030   0.035   0.040   0.028   0.026   0.033   0.043   0.044   0.047   0.028   0.025   0.032   0.030   0.031   0.041   0.043
   148.73    0.041   0.035   0.030   0.027   0.031   0.035   0.031   0.037   0.041   0.031   0.031   0.040   0.033   0.028   0.029   0.033   0.033   0.034   0.031   0.029   0.032   0.030   0.028   0.036   0.039
   136.34    0.038   0.042   0.027   0.027   0.026   0.033   0.036   0.028   0.033   0.033   0.031   0.040   0.040   0.032   0.036   0.031   0.024   0.029   0.030   0.033   0.036   0.028   0.032   0.034   0.032
   123.95    0.030   0.031   0.027   0.031   0.033   0.023   0.031   0.036   0.029   0.029   0.027   0.042   0.035   0.038   0.046   0.041   0.026   0.029   0.027   0.032   0.032   0.035   0.034   0.030   0.031
   111.55    0.027   0.023   0.030   0.024   0.036   0.028   0.035   0.028   0.033   0.033   0.045   0.043   0.047   0.040   0.038   0.043   0.046   0.032   0.033   0.039   0.033   0.029   0.031   0.036   0.029
    99.16    0.032   0.044   0.031   0.030   0.037   0.031   0.038   0.035   0.029   0.047   0.046   0.047   0.039   0.032   0.032   0.045   0.042   0.036   0.035   0.035   0.037   0.034   0.044   0.042   0.030
    86.76    0.045   0.053   0.038   0.038   0.052   0.054   0.044   0.033   0.042   0.045   0.034   0.039   0.033   0.036   0.048   0.048   0.051   0.041   0.045   0.037   0.040   0.041   0.039   0.032   0.023
    74.37    0.046   0.050   0.053   0.039   0.046   0.050   0.048   0.045   0.044   0.049   0.045   0.047   0.034   0.036   0.035   0.044   0.047   0.047   0.044   0.023   0.033   0.031   0.032   0.042   0.032
    61.97    0.056   0.041   0.056   0.044   0.056   0.042   0.052   0.036   0.042   0.037   0.038   0.037   0.033   0.035   0.044   0.033   0.037   0.036   0.031   0.027   0.030   0.035   0.030   0.035   0.034
    49.58    0.051   0.051   0.051   0.048   0.053   0.058   0.041   0.046   0.042   0.031   0.029   0.029   0.032   0.036   0.043   0.035   0.031   0.033   0.030   0.028   0.035   0.031   0.025   0.032   0.029
    37.18    0.044   0.052   0.044   0.042   0.050   0.052   0.044   0.034   0.030   0.032   0.031   0.031   0.032   0.042   0.045   0.024   0.033   0.034   0.035   0.030   0.027   0.032   0.037   0.046   0.037
    24.79    0.051   0.041   0.042   0.036   0.040   0.037   0.039   0.029   0.029   0.029   0.036   0.029   0.030   0.033   0.038   0.029   0.037   0.031   0.033   0.042   0.031   0.037   0.037   0.041   0.034
    12.40    0.041   0.048   0.029   0.025   0.032   0.039   0.026   0.029   0.035   0.031   0.033   0.035   0.038   0.035   0.038   0.040   0.032   0.030   0.031   0.037   0.036   0.035   0.033   0.035   0.036
     0.00    0.037   0.039   0.036   0.030   0.027   0.036   0.026   0.032   0.037   0.033   0.029   0.029   0.035   0.043   0.044   0.028   0.035   0.034   0.034   0.043   0.032   0.031   0.034   0.043   0.032

   Height   Standard deviation at grid points for the v component:
   297.47    0.036   0.036   0.036   0.036   0.036   0.036   0.036   0.036   0.036   0.036   0.036   0.036   0.036   0.036   0.036   0.036   0.036   0.036   0.036   0.036   0.036   0.036   0.036   0.036   0.036
   285.07    0.036   0.036   0.036   0.036   0.036   0.036   0.036   0.036   0.036   0.036   0.036   0.036   0.036   0.036   0.036   0.036   0.036   0.036   0.036   0.036   0.036   0.036   0.036   0.036   0.036
   272.68    0.036   0.036   0.036   0.036   0.036   0.036   0.036   0.036   0.036   0.036   0.036   0.036   0.036   0.036   0.036   0.036   0.036   0.036   0.036   0.036   0.036   0.036   0.036   0.036   0.036
   260.29    0.036   0.036   0.036   0.036   0.036   0.036   0.036   0.036   0.036   0.036   0.036   0.036   0.036   0.036   0.036   0.036   0.036   0.036   0.036   0.036   0.036   0.036   0.036   0.036   0.036
   247.89    0.036   0.036   0.036   0.036   0.036   0.036   0.036   0.036   0.036   0.036   0.036   0.036   0.036   0.036   0.036   0.036   0.036   0.036   0.036   0.036   0.036   0.036   0.036   0.036   0.036
   235.50    0.036   0.036   0.036   0.036   0.036   0.036   0.036   0.036   0.036   0.036   0.036   0.036   0.036   0.036   0.036   0.036   0.036   0.036   0.036   0.036   0.036   0.036   0.036   0.036   0.036
   223.10    0.036   0.036   0.036   0.036   0.036   0.036   0.036   0.036   0.036   0.036   0.036   0.036   0.036   0.036   0.036   0.036   0.036   0.036   0.036   0.036   0.036   0.036   0.036   0.036   0.036
   210.71    0.036   0.036   0.036   0.036   0.036   0.036   0.036   0.036   0.036   0.036   0.036   0.036   0.036   0.036   0.036   0.036   0.036   0.036   0.036   0.036   0.036   0.036   0.036   0.036   0.036
   198.31    0.036   0.036   0.036   0.036   0.036   0.036   0.036   0.036   0.036   0.036   0.036   0.036   0.036   0.036   0.036   0.036   0.036   0.036   0.036   0.036   0.036   0.036   0.036   0.036   0.036
   185.92    0.036   0.036   0.036   0.036   0.036   0.036   0.036   0.036   0.036   0.036   0.036   0.036   0.036   0.036   0.036   0.036   0.036   0.036   0.036   0.036   0.036   0.036   0.036   0.036   0.036
   173.52    0.036   0.036   0.036   0.036   0.036   0.036   0.036   0.036   0.036   0.036   0.036   0.036   0.036   0.036   0.036   0.036   0.036   0.036   0.036   0.036   0.036   0.036   0.036   0.036   0.036
   161.13    0.036   0.036   0.036   0.036   0.036   0.036   0.036   0.036   0.036   0.036   0.036   0.036   0.036   0.036   0.036   0.036   0.036   0.036   0.036   0.036   0.036   0.036   0.036   0.036   0.036
   148.73    0.036   0.036   0.036   0.036   0.036   0.036   0.036   0.036   0.036   0.036   0.036   0.036   0.036   0.036   0.036   0.036   0.036   0.036   0.036   0.036   0.036   0.036   0.036   0.036   0.036
   136.34    0.036   0.036   0.036   0.036   0.036   0.036   0.036   0.036   0.036   0.036   0.036   0.036   0.036   0.036   0.036   0.036   0.036   0.036   0.036   0.036   0.036   0.036   0.036   0.036   0.036
   123.95    0.036   0.036   0.036   0.036   0.036   0.036   0.036   0.036   0.036   0.036   0.036   0.036   0.036   0.036   0.036   0.036   0.036   0.036   0.036   0.036   0.036   0.036   0.036   0.036   0.036
   111.55    0.036   0.036   0.036   0.036   0.036   0.036   0.036   0.036   0.036   0.036   0.036   0.036   0.036   0.036   0.036   0.036   0.036   0.036   0.036   0.036   0.036   0.036   0.036   0.036   0.036
    99.16    0.036   0.036   0.036   0.036   0.036   0.036   0.036   0.036   0.036   0.036   0.036   0.036   0.036   0.036   0.036   0.036   0.036   0.036   0.036   0.036   0.036   0.036   0.036   0.036   0.036
    86.76    0.036   0.036   0.036   0.036   0.036   0.036   0.036   0.036   0.036   0.036   0.036   0.036   0.036   0.036   0.036   0.036   0.036   0.036   0.036   0.036   0.036   0.036   0.036   0.036   0.036
    74.37    0.036   0.036   0.036   0.036   0.036   0.036   0.036   0.036   0.036   0.036   0.036   0.036   0.036   0.036   0.036   0.036   0.036   0.036   0.036   0.036   0.036   0.036   0.036   0.036   0.036
    61.97    0.036   0.036   0.036   0.036   0.036   0.036   0.036   0.036   0.036   0.036   0.036   0.036   0.036   0.036   0.036   0.036   0.036   0.036   0.036   0.036   0.036   0.036   0.036   0.036   0.036
    49.58    0.036   0.036   0.036   0.036   0.036   0.036   0.036   0.036   0.036   0.036   0.036   0.036   0.036   0.036   0.036   0.036   0.036   0.036   0.036   0.036   0.036   0.036   0.036   0.036   0.036
    37.18    0.036   0.036   0.036   0.036   0.036   0.036   0.036   0.036   0.036   0.036   0.036   0.036   0.036   0.036   0.036   0.036   0.036   0.036   0.036   0.036   0.036   0.036   0.036   0.036   0.036
    24.79    0.036   0.036   0.036   0.036   0.036   0.036   0.036   0.036   0.036   0.036   0.036   0.036   0.036   0.036   0.036   0.036   0.036   0.036   0.036   0.036   0.036   0.036   0.036   0.036   0.036
    12.40    0.036   0.036   0.036   0.036   0.036   0.036   0.036   0.036   0.036   0.036   0.036   0.036   0.036   0.036   0.036   0.036   0.036   0.036   0.036   0.036   0.036   0.036   0.036   0.036   0.036
     0.00    0.036   0.036   0.036   0.036   0.036   0.036   0.036   0.036   0.036   0.036   0.036   0.036   0.036   0.036   0.036   0.036   0.036   0.036   0.036   0.036   0.036   0.036   0.036   0.036   0.036

   Height   Standard deviation at grid points for the w component:
   297.47    0.025   0.025   0.025   0.025   0.025   0.025   0.025   0.025   0.025   0.025   0.025   0.025   0.025   0.025   0.025   0.025   0.025   0.025   0.025   0.025   0.025   0.025   0.025   0.025   0.025
   285.07    0.025   0.025   0.025   0.025   0.025   0.025   0.025   0.025   0.025   0.025   0.025   0.025   0.025   0.025   0.025   0.025   0.025   0.025   0.025   0.025   0.025   0.025   0.025   0.025   0.025
   272.68    0.025   0.025   0.025   0.025   0.025   0.025   0.025   0.025   0.025   0.025   0.025   0.025   0.025   0.025   0.025   0.025   0.025   0.025   0.025   0.025   0.025   0.025   0.025   0.025   0.025
   260.29    0.025   0.025   0.025   0.025   0.025   0.025   0.025   0.025   0.025   0.025   0.025   0.025   0.025   0.025   0.025   0.025   0.025   0.025   0.025   0.025   0.025   0.025   0.025   0.025   0.025
   247.89    0.025   0.025   0.025   0.025   0.025   0.025   0.025   0.025   0.025   0.025   0.025   0.025   0.025   0.025   0.025   0.025   0.025   0.025   0.025   0.025   0.025   0.025   0.025   0.025   0.025
   235.50    0.025   0.025   0.025   0.025   0.025   0.025   0.025   0.025   0.025   0.025   0.025   0.025   0.025   0.025   0.025   0.025   0.025   0.025   0.025   0.025   0.025   0.025   0.025   0.025   0.025
   223.10    0.025   0.025   0.025   0.025   0.025   0.025   0.025   0.025   0.025   0.025   0.025   0.025   0.025   0.025   0.025   0.025   0.025   0.025   0.025   0.025   0.025   0.025   0.025   0.025   0.025
   210.71    0.025   0.025   0.025   0.025   0.025   0.025   0.025   0.025   0.025   0.025   0.025   0.025   0.025   0.025   0.025   0.025   0.025   0.025   0.025   0.025   0.025   0.025   0.025   0.025   0.025
   198.31    0.025   0.025   0.025   0.025   0.025   0.025   0.025   0.025   0.025   0.025   0.025   0.025   0.025   0.025   0.025   0.025   0.025   0.025   0.025   0.025   0.025   0.025   0.025   0.025   0.025
   185.92    0.025   0.025   0.025   0.025   0.025   0.025   0.025   0.025   0.025   0.025   0.025   0.025   0.025   0.025   0.025   0.025   0.025   0.025   0.025   0.025   0.025   0.025   0.025   0.025   0.025
   173.52    0.025   0.025   0.025   0.025   0.025   0.025   0.025   0.025   0.025   0.025   0.025   0.025   0.025   0.025   0.025   0.025   0.025   0.025   0.025   0.025   0.025   0.025   0.025   0.025   0.025
   161.13    0.025   0.025   0.025   0.025   0.025   0.025   0.025   0.025   0.025   0.025   0.025   0.025   0.025   0.025   0.025   0.025   0.025   0.025   0.025   0.025   0.025   0.025   0.025   0.025   0.025
   148.73    0.025   0.025   0.025   0.025   0.025   0.025   0.025   0.025   0.025   0.025   0.025   0.025   0.025   0.025   0.025   0.025   0.025   0.025   0.025   0.025   0.025   0.025   0.025   0.025   0.025
   136.34    0.025   0.025   0.025   0.025   0.025   0.025   0.025   0.025   0.025   0.025   0.025   0.025   0.025   0.025   0.025   0.025   0.025   0.025   0.025   0.025   0.025   0.025   0.025   0.025   0.025
   123.95    0.025   0.025   0.025   0.025   0.025   0.025   0.025   0.025   0.025   0.025   0.025   0.025   0.025   0.025   0.025   0.025   0.025   0.025   0.025   0.025   0.025   0.025   0.025   0.025   0.025
   111.55    0.025   0.025   0.025   0.025   0.025   0.025   0.025   0.025   0.025   0.025   0.025   0.025   0.025   0.025   0.025   0.025   0.025   0.025   0.025   0.025   0.025   0.025   0.025   0.025   0.025
    99.16    0.025   0.025   0.025   0.025   0.025   0.025   0.025   0.025   0.025   0.025   0.025   0.025   0.025   0.025   0.025   0.025   0.025   0.025   0.025   0.025   0.025   0.025   0.025   0.025   0.025
    86.76    0.025   0.025   0.025   0.025   0.025   0.025   0.025   0.025   0.025   0.025   0.025   0.025   0.025   0.025   0.025   0.025   0.025   0.025   0.025   0.025   0.025   0.025   0.025   0.025   0.025
    74.37    0.025   0.025   0.025   0.025   0.025   0.025   0.025   0.025   0.025   0.025   0.025   0.025   0.025   0.025   0.025   0.025   0.025   0.025   0.025   0.025   0.025   0.025   0.025   0.025   0.025
    61.97    0.025   0.025   0.025   0.025   0.025   0.025   0.025   0.025   0.025   0.025   0.025   0.025   0.025   0.025   0.025   0.025   0.025   0.025   0.025   0.025   0.025   0.025   0.025   0.025   0.025
    49.58    0.025   0.025   0.025   0.025   0.025   0.025   0.025   0.025   0.025   0.025   0.025   0.025   0.025   0.025   0.025   0.025   0.025   0.025   0.025   0.025   0.025   0.025   0.025   0.025   0.025
    37.18    0.025   0.025   0.025   0.025   0.025   0.025   0.025   0.025   0.025   0.025   0.025   0.025   0.025   0.025   0.025   0.025   0.025   0.025   0.025   0.025   0.025   0.025   0.025   0.025   0.025
    24.79    0.025   0.025   0.025   0.025   0.025   0.025   0.025   0.025   0.025   0.025   0.025   0.025   0.025   0.025   0.025   0.025   0.025   0.025   0.025   0.025   0.025   0.025   0.025   0.025   0.025
    12.40    0.025   0.025   0.025   0.025   0.025   0.025   0.025   0.025   0.025   0.025   0.025   0.025   0.025   0.025   0.025   0.025   0.025   0.025   0.025   0.025   0.025   0.025   0.025   0.025   0.025
     0.00    0.025   0.025   0.025   0.025   0.025   0.025   0.025   0.025   0.025   0.025   0.025   0.025   0.025   0.025   0.025   0.025   0.025   0.025   0.025   0.025   0.025   0.025   0.025   0.025   0.025

   Mean standard deviation across all grid points:
      u component:    0.037 m/s
      v component:    0.036 m/s
      w component:    0.025 m/s


U-component (X) statistics from the interpolated hub point:

   Mean =  47.0935 m/s
   TI   =   0.0705 %


Processing complete.  2.6763 CPU seconds used.
