
This summary file was generated by TurbSim (from OpenFAST--128-NOTFOUND) on 15-Feb-2023 at 10:00:41.


Runtime Options:

1501552846  Random seed #1
    RANLUX  Type of random number generator
         F  Output binary HH turbulence parameters?
         F  Output formatted turbulence parameters?
         F  Output AeroDyn HH files?
         T  Output AeroDyn FF files?
         F  Output BLADED FF files?
         F  Output tower data?
         F  Output HAWC FF files?
         F  Output formatted FF files?
         F  Output coherent turbulence time step file?
 0 -  NONE  IEC turbulence models scaled to exact specified standard deviation


Turbine/Model Specifications:

        25  Vertical grid-point matrix dimension
        25  Horizontal grid-point matrix dimension
     0.050  Time step [seconds]
    15.000  Analysis time [seconds]
    15.000  Usable output time [seconds]
   140.000  Hub height [m]
   279.999  Grid height [m]
   279.999  Grid width [m]
     0.000  Vertical flow angle [degrees]
     0.000  Horizontal flow angle [degrees]


Meteorological Boundary Conditions:

    IECKAI  IEC Kaimal spectral model
         1  IEC standard: IEC 61400-1 Ed. 3: 2005
         A  IEC turbulence characteristic
      3ETM  IEC Extreme Turbulence Model
     2.000  IEC Extreme Turbulence Model (ETM) "c" parameter [m/s]
       PL   Wind profile type
   100.000  Reference height [m]
    15.000  Reference wind speed [m/s]
       N/A  Jet height [m]
     0.200  Power law exponent
     0.030  Surface roughness length [m]


Non-IEC Meteorological Boundary Conditions:

       N/A  Site latitude [degrees]
       N/A  Gradient Richardson number
       N/A  Friction or shear velocity [m/s]
       N/A  Mixing layer depth [m]
       N/A  Mean hub u'w' Reynolds stress
       N/A  Mean hub u'v' Reynolds stress
       N/A  Mean hub v'w' Reynolds stress


Spatial Coherence Models:

       IEC  u-component coherence model
      NONE  v-component coherence model
      NONE  w-component coherence model
(   12.000, 0.353E-03)  u-component coherence parameters
                   N/A  v-component coherence parameters
                   N/A  w-component coherence parameters
       N/A  Coherence exponent


You have requested that the following file(s) be generated:

   BAR10_3ETM_U15.000000_Seed1501552846.0.bts (AeroDyn/TurbSim full-field wind file)


Turbulence Simulation Scaling Parameter Summary:

   Turbulence model used                            =  IEC Kaimal
   Turbulence characteristic                        =  3A
   IEC turbulence type                              =  Extreme Turbulence Model
   Reference wind speed average over 10 minutes     =   37.500 m/s
   Annual wind speed average at hub height          =    7.500 m/s
   IEC standard                                     =  IEC 61400-1 Ed. 3: 2005
   Mean wind speed at hub height                    =   16.044 m/s
   Expected value of turbulence intensity at 15 m/s =   16.000%
   Characteristic value of standard deviation       =    3.826 m/s
   Turbulence scale                                 =   42.000 m
   u-component integral scale                       =  340.200 m
   Coherency scale                                  =  340.200 m
   Characteristic value of hub turbulence intensity =   23.844%
   Gradient Richardson number                       =    0.000

   Wind profile type                                =  Power law
   Power law exponent                               =    0.200
   Mean shear across rotor disk                     =    0.061 (m/s)/m
   Assumed rotor diameter                           =  279.999 m
   Surface roughness length                         =    0.030 m

   Nyquist frequency of turbulent wind field        =   10.000 Hz

   Number of time steps in the FFT                  =      300
   Number of time steps output                      =      300
   Number of points simulated                       =      625


Mean Flow Angles:

   Vertical   =   0.0 degrees
   Horizontal =   0.0 degrees

Mean Wind Speed Profile:

   Height    Wind Speed   Horizontal Angle  Vertical Angle  U-comp (X)   V-comp (Y)   W-comp (Z)
     (m)        (m/s)         (degrees)       (degrees)       (m/s)        (m/s)        (m/s)   
   ------    ----------   ----------------  --------------  ----------   ----------   ----------
    280.0       18.43            0.00            0.00         18.43         0.00         0.00
    268.3       18.27            0.00            0.00         18.27         0.00         0.00
    256.7       18.11            0.00            0.00         18.11         0.00         0.00
    245.0       17.94            0.00            0.00         17.94         0.00         0.00
    233.3       17.77            0.00            0.00         17.77         0.00         0.00
    221.7       17.59            0.00            0.00         17.59         0.00         0.00
    210.0       17.40            0.00            0.00         17.40         0.00         0.00
    198.3       17.20            0.00            0.00         17.20         0.00         0.00
    186.7       16.99            0.00            0.00         16.99         0.00         0.00
    175.0       16.78            0.00            0.00         16.78         0.00         0.00
    163.3       16.55            0.00            0.00         16.55         0.00         0.00
    151.7       16.30            0.00            0.00         16.30         0.00         0.00
    140.0       16.04            0.00            0.00         16.04         0.00         0.00
    128.3       15.77            0.00            0.00         15.77         0.00         0.00
    116.7       15.47            0.00            0.00         15.47         0.00         0.00
    105.0       15.15            0.00            0.00         15.15         0.00         0.00
     93.3       14.79            0.00            0.00         14.79         0.00         0.00
     81.7       14.40            0.00            0.00         14.40         0.00         0.00
     70.0       13.97            0.00            0.00         13.97         0.00         0.00
     58.3       13.47            0.00            0.00         13.47         0.00         0.00
     46.7       12.88            0.00            0.00         12.88         0.00         0.00
     35.0       12.16            0.00            0.00         12.16         0.00         0.00
     23.3       11.21            0.00            0.00         11.21         0.00         0.00
     11.7        9.76            0.00            0.00          9.76         0.00         0.00
      0.0        1.32            0.00            0.00          1.32         0.00         0.00


Harvested Random Seeds after Generation of the Random Numbers:

      2613132 K 1
            0 K 2


Hub-Height Simulated Turbulence Statistical Summary:

   Type of Wind        Min (m/s)   Mean (m/s)    Max (m/s)  Sigma (m/s)       TI (%)
   ----------------    ---------   ----------    ---------  -----------       ------
   Longitudinal (u)        12.63        16.04        20.68        1.807       11.262
   Lateral (v)             -5.37        -0.00         7.09        2.187       13.633
   Vertical (w)            -5.19         0.00         4.50        1.674       10.434
   U component             12.63        16.04        20.68        1.807       11.262
   V component             -5.37        -0.00         7.09        2.187       13.633
   W component             -5.19         0.00         4.50        1.674       10.434
   Horizontal (U&V)        12.65        16.19        20.68        1.789       11.047
   Total                   12.71        16.28        20.95        1.812       11.132

                       Min Reynolds     Mean Reynolds    Max Reynolds    Correlation
   Product             Stress (m/s)^2   Stress (m/s)^2   Stress (m/s)^2  Coefficient
   ----------------    --------------   --------------   --------------  -----------
   u'w'                    -18.011            -0.138            11.569        -0.046
   u'v'                     -9.785             0.465            10.705         0.118
   v'w'                     -9.711             0.148            10.486         0.040


   Friction Velocity (Ustar)  =      0.372 m/s
   Maximum Instantaneous TKE  =     27.204 (m/s)^2
   Maximum Instantaneous CTKE =      9.440 (m/s)^2


Grid Point Variance Summary:

   Y-coord -140.00 -128.33 -116.67 -105.00  -93.33  -81.67  -70.00  -58.33  -46.67  -35.00  -23.33  -11.67    0.00   11.67   23.33   35.00   46.67   58.33   70.00   81.67   93.33  105.00  116.67  128.33  140.00

   Height   Standard deviation at grid points for the u component:
   280.00    1.969   2.241   2.235   1.678   2.078   2.574   2.733   2.044   2.150   2.408   2.251   2.772   2.547   1.941   1.896   1.834   2.092   2.349   2.611   1.447   2.431   2.142   2.355   2.162   1.715
   268.33    2.013   2.154   1.976   2.204   1.878   1.891   1.990   2.039   1.594   2.041   1.991   2.605   2.419   1.815   1.871   1.519   1.960   1.974   1.947   1.955   2.189   2.188   2.109   1.775   2.129
   256.67    2.057   1.602   2.249   1.868   1.771   1.532   1.940   2.013   1.563   1.887   1.739   2.198   1.840   1.897   1.697   1.578   1.836   1.848   1.763   2.031   1.680   2.378   1.670   1.655   1.842
   245.00    1.702   1.837   2.157   1.530   1.877   2.274   1.743   2.502   2.623   2.100   2.093   2.016   2.093   1.949   1.744   1.806   1.712   2.109   1.822   1.826   1.690   1.973   2.881   1.922   1.638
   233.33    1.678   1.499   1.590   1.715   1.485   2.519   2.211   2.753   2.365   1.953   1.550   2.025   1.862   1.680   2.293   2.613   2.075   1.796   1.807   1.602   1.917   1.558   2.339   2.901   2.424
   221.67    2.181   1.610   2.097   1.485   1.639   2.558   3.202   3.535   3.040   2.924   1.965   1.940   1.525   1.818   1.974   2.073   1.908   1.595   1.703   1.660   1.829   1.642   2.046   2.478   1.658
   210.00    2.445   1.506   1.661   1.843   2.035   2.534   2.405   3.214   3.350   2.227   2.143   2.625   2.742   1.654   1.486   1.536   1.830   2.259   2.321   2.042   1.697   1.593   1.582   1.960   1.722
   198.33    2.195   1.426   1.575   2.078   1.570   2.398   2.694   2.725   2.753   1.547   2.238   2.176   2.143   2.255   1.917   2.143   1.855   1.795   1.685   1.676   1.854   2.090   2.119   1.657   2.367
   186.67    1.459   2.265   2.739   2.202   2.178   2.326   2.789   1.626   1.770   1.764   1.983   1.840   1.553   1.940   2.075   1.438   1.811   1.411   1.765   2.275   2.644   1.865   2.271   2.198   2.678
   175.00    2.095   2.187   2.208   2.303   1.973   1.782   2.363   2.284   1.622   1.804   1.904   1.869   1.544   1.691   1.861   1.791   2.077   2.370   1.745   1.711   2.078   2.055   2.569   2.801   2.166
   163.33    1.547   1.958   1.673   1.824   2.197   2.217   2.402   1.678   1.851   1.760   1.803   1.958   1.709   1.682   2.125   1.781   2.099   1.868   1.650   1.676   2.453   1.940   2.457   2.613   1.746
   151.67    2.770   2.305   2.585   1.535   1.649   1.853   2.170   2.039   1.954   2.336   2.183   2.061   1.962   2.269   2.556   1.453   2.452   2.294   2.478   2.177   2.500   1.825   1.954   1.915   1.960
   140.00    2.338   2.326   2.732   1.520   1.551   2.178   2.439   2.310   1.876   1.628   2.394   1.459   1.807   2.473   2.647   1.659   2.166   2.849   2.462   2.565   2.742   2.589   2.835   1.595   2.146
   128.33    2.022   1.708   2.214   2.179   1.933   2.131   1.738   1.822   1.638   1.969   2.094   1.734   1.448   2.256   2.104   2.175   2.219   2.562   2.223   1.736   1.889   2.448   2.702   1.920   1.923
   116.67    1.822   1.651   2.163   1.924   1.628   1.837   2.088   1.804   1.746   2.276   2.063   1.664   2.264   2.585   1.785   2.597   1.577   2.218   2.061   1.978   1.613   1.697   2.067   1.678   1.956
   105.00    2.411   1.687   2.218   1.956   2.158   2.454   3.001   1.810   1.641   1.806   2.558   2.638   2.774   2.742   2.480   2.241   1.656   1.943   2.811   2.211   2.192   1.530   1.667   2.161   1.923
    93.33    2.360   2.299   2.156   1.943   1.758   2.180   2.451   3.031   2.360   2.637   2.788   2.357   2.768   2.833   2.502   1.950   1.740   2.240   2.906   2.498   2.558   2.038   1.811   2.151   2.341
    81.67    2.153   1.668   2.224   1.934   1.974   1.757   2.196   2.376   2.602   2.696   1.895   2.349   2.919   2.666   1.854   1.584   1.598   1.795   2.102   2.279   2.116   1.663   2.069   2.283   1.695
    70.00    1.841   1.647   2.015   1.960   1.855   2.245   2.496   1.832   2.632   2.752   2.624   2.327   2.419   2.806   1.966   1.563   2.254   1.838   2.603   1.733   1.947   1.419   1.731   2.008   2.393
    58.33    1.618   1.984   1.483   1.698   2.107   1.480   2.233   1.941   2.412   3.217   2.881   2.537   1.764   2.065   2.815   2.882   2.577   1.380   2.135   2.690   1.592   1.667   2.251   1.446   2.217
    46.67    2.236   2.323   2.156   2.688   2.716   1.687   1.748   1.820   2.143   2.559   2.867   2.082   2.315   1.424   2.146   2.746   2.048   1.769   2.538   2.584   2.186   1.899   2.499   1.978   2.429
    35.00    1.757   2.030   2.799   3.018   1.615   2.078   1.496   2.007   2.007   1.961   2.246   2.436   1.383   2.617   2.074   2.587   2.261   2.245   2.228   2.564   2.041   2.148   2.943   3.078   2.076
    23.33    1.676   1.841   2.162   2.477   2.766   1.703   2.304   1.766   2.208   2.050   1.776   2.317   1.990   2.640   3.272   2.679   2.235   2.250   2.459   2.474   2.643   1.962   2.334   2.524   2.973
    11.67    1.490   1.787   1.980   1.813   2.175   2.193   2.151   1.697   1.883   2.582   2.876   3.250   3.110   2.825   3.250   2.432   2.398   2.913   2.911   1.789   1.994   2.309   1.807   2.035   2.813
     0.00    2.082   1.657   1.899   1.764   2.014   1.881   1.668   1.984   1.936   2.312   2.513   2.614   2.248   2.344   2.514   2.797   1.441   2.092   2.461   2.199   2.491   2.234   1.620   2.189   2.389

   Height   Standard deviation at grid points for the v component:
   280.00    2.187   2.187   2.187   2.187   2.187   2.187   2.187   2.187   2.187   2.187   2.187   2.187   2.187   2.187   2.187   2.187   2.187   2.187   2.187   2.187   2.187   2.187   2.187   2.187   2.187
   268.33    2.187   2.187   2.187   2.187   2.187   2.187   2.187   2.187   2.187   2.187   2.187   2.187   2.187   2.187   2.187   2.187   2.187   2.187   2.187   2.187   2.187   2.187   2.187   2.187   2.187
   256.67    2.187   2.187   2.187   2.187   2.187   2.187   2.187   2.187   2.187   2.187   2.187   2.187   2.187   2.187   2.187   2.187   2.187   2.187   2.187   2.187   2.187   2.187   2.187   2.187   2.187
   245.00    2.187   2.187   2.187   2.187   2.187   2.187   2.187   2.187   2.187   2.187   2.187   2.187   2.187   2.187   2.187   2.187   2.187   2.187   2.187   2.187   2.187   2.187   2.187   2.187   2.187
   233.33    2.187   2.187   2.187   2.187   2.187   2.187   2.187   2.187   2.187   2.187   2.187   2.187   2.187   2.187   2.187   2.187   2.187   2.187   2.187   2.187   2.187   2.187   2.187   2.187   2.187
   221.67    2.187   2.187   2.187   2.187   2.187   2.187   2.187   2.187   2.187   2.187   2.187   2.187   2.187   2.187   2.187   2.187   2.187   2.187   2.187   2.187   2.187   2.187   2.187   2.187   2.187
   210.00    2.187   2.187   2.187   2.187   2.187   2.187   2.187   2.187   2.187   2.187   2.187   2.187   2.187   2.187   2.187   2.187   2.187   2.187   2.187   2.187   2.187   2.187   2.187   2.187   2.187
   198.33    2.187   2.187   2.187   2.187   2.187   2.187   2.187   2.187   2.187   2.187   2.187   2.187   2.187   2.187   2.187   2.187   2.187   2.187   2.187   2.187   2.187   2.187   2.187   2.187   2.187
   186.67    2.187   2.187   2.187   2.187   2.187   2.187   2.187   2.187   2.187   2.187   2.187   2.187   2.187   2.187   2.187   2.187   2.187   2.187   2.187   2.187   2.187   2.187   2.187   2.187   2.187
   175.00    2.187   2.187   2.187   2.187   2.187   2.187   2.187   2.187   2.187   2.187   2.187   2.187   2.187   2.187   2.187   2.187   2.187   2.187   2.187   2.187   2.187   2.187   2.187   2.187   2.187
   163.33    2.187   2.187   2.187   2.187   2.187   2.187   2.187   2.187   2.187   2.187   2.187   2.187   2.187   2.187   2.187   2.187   2.187   2.187   2.187   2.187   2.187   2.187   2.187   2.187   2.187
   151.67    2.187   2.187   2.187   2.187   2.187   2.187   2.187   2.187   2.187   2.187   2.187   2.187   2.187   2.187   2.187   2.187   2.187   2.187   2.187   2.187   2.187   2.187   2.187   2.187   2.187
   140.00    2.187   2.187   2.187   2.187   2.187   2.187   2.187   2.187   2.187   2.187   2.187   2.187   2.187   2.187   2.187   2.187   2.187   2.187   2.187   2.187   2.187   2.187   2.187   2.187   2.187
   128.33    2.187   2.187   2.187   2.187   2.187   2.187   2.187   2.187   2.187   2.187   2.187   2.187   2.187   2.187   2.187   2.187   2.187   2.187   2.187   2.187   2.187   2.187   2.187   2.187   2.187
   116.67    2.187   2.187   2.187   2.187   2.187   2.187   2.187   2.187   2.187   2.187   2.187   2.187   2.187   2.187   2.187   2.187   2.187   2.187   2.187   2.187   2.187   2.187   2.187   2.187   2.187
   105.00    2.187   2.187   2.187   2.187   2.187   2.187   2.187   2.187   2.187   2.187   2.187   2.187   2.187   2.187   2.187   2.187   2.187   2.187   2.187   2.187   2.187   2.187   2.187   2.187   2.187
    93.33    2.187   2.187   2.187   2.187   2.187   2.187   2.187   2.187   2.187   2.187   2.187   2.187   2.187   2.187   2.187   2.187   2.187   2.187   2.187   2.187   2.187   2.187   2.187   2.187   2.187
    81.67    2.187   2.187   2.187   2.187   2.187   2.187   2.187   2.187   2.187   2.187   2.187   2.187   2.187   2.187   2.187   2.187   2.187   2.187   2.187   2.187   2.187   2.187   2.187   2.187   2.187
    70.00    2.187   2.187   2.187   2.187   2.187   2.187   2.187   2.187   2.187   2.187   2.187   2.187   2.187   2.187   2.187   2.187   2.187   2.187   2.187   2.187   2.187   2.187   2.187   2.187   2.187
    58.33    2.187   2.187   2.187   2.187   2.187   2.187   2.187   2.187   2.187   2.187   2.187   2.187   2.187   2.187   2.187   2.187   2.187   2.187   2.187   2.187   2.187   2.187   2.187   2.187   2.187
    46.67    2.187   2.187   2.187   2.187   2.187   2.187   2.187   2.187   2.187   2.187   2.187   2.187   2.187   2.187   2.187   2.187   2.187   2.187   2.187   2.187   2.187   2.187   2.187   2.187   2.187
    35.00    2.187   2.187   2.187   2.187   2.187   2.187   2.187   2.187   2.187   2.187   2.187   2.187   2.187   2.187   2.187   2.187   2.187   2.187   2.187   2.187   2.187   2.187   2.187   2.187   2.187
    23.33    2.187   2.187   2.187   2.187   2.187   2.187   2.187   2.187   2.187   2.187   2.187   2.187   2.187   2.187   2.187   2.187   2.187   2.187   2.187   2.187   2.187   2.187   2.187   2.187   2.187
    11.67    2.187   2.187   2.187   2.187   2.187   2.187   2.187   2.187   2.187   2.187   2.187   2.187   2.187   2.187   2.187   2.187   2.187   2.187   2.187   2.187   2.187   2.187   2.187   2.187   2.187
     0.00    2.187   2.187   2.187   2.187   2.187   2.187   2.187   2.187   2.187   2.187   2.187   2.187   2.187   2.187   2.187   2.187   2.187   2.187   2.187   2.187   2.187   2.187   2.187   2.187   2.187

   Height   Standard deviation at grid points for the w component:
   280.00    1.674   1.674   1.674   1.674   1.674   1.674   1.674   1.674   1.674   1.674   1.674   1.674   1.674   1.674   1.674   1.674   1.674   1.674   1.674   1.674   1.674   1.674   1.674   1.674   1.674
   268.33    1.674   1.674   1.674   1.674   1.674   1.674   1.674   1.674   1.674   1.674   1.674   1.674   1.674   1.674   1.674   1.674   1.674   1.674   1.674   1.674   1.674   1.674   1.674   1.674   1.674
   256.67    1.674   1.674   1.674   1.674   1.674   1.674   1.674   1.674   1.674   1.674   1.674   1.674   1.674   1.674   1.674   1.674   1.674   1.674   1.674   1.674   1.674   1.674   1.674   1.674   1.674
   245.00    1.674   1.674   1.674   1.674   1.674   1.674   1.674   1.674   1.674   1.674   1.674   1.674   1.674   1.674   1.674   1.674   1.674   1.674   1.674   1.674   1.674   1.674   1.674   1.674   1.674
   233.33    1.674   1.674   1.674   1.674   1.674   1.674   1.674   1.674   1.674   1.674   1.674   1.674   1.674   1.674   1.674   1.674   1.674   1.674   1.674   1.674   1.674   1.674   1.674   1.674   1.674
   221.67    1.674   1.674   1.674   1.674   1.674   1.674   1.674   1.674   1.674   1.674   1.674   1.674   1.674   1.674   1.674   1.674   1.674   1.674   1.674   1.674   1.674   1.674   1.674   1.674   1.674
   210.00    1.674   1.674   1.674   1.674   1.674   1.674   1.674   1.674   1.674   1.674   1.674   1.674   1.674   1.674   1.674   1.674   1.674   1.674   1.674   1.674   1.674   1.674   1.674   1.674   1.674
   198.33    1.674   1.674   1.674   1.674   1.674   1.674   1.674   1.674   1.674   1.674   1.674   1.674   1.674   1.674   1.674   1.674   1.674   1.674   1.674   1.674   1.674   1.674   1.674   1.674   1.674
   186.67    1.674   1.674   1.674   1.674   1.674   1.674   1.674   1.674   1.674   1.674   1.674   1.674   1.674   1.674   1.674   1.674   1.674   1.674   1.674   1.674   1.674   1.674   1.674   1.674   1.674
   175.00    1.674   1.674   1.674   1.674   1.674   1.674   1.674   1.674   1.674   1.674   1.674   1.674   1.674   1.674   1.674   1.674   1.674   1.674   1.674   1.674   1.674   1.674   1.674   1.674   1.674
   163.33    1.674   1.674   1.674   1.674   1.674   1.674   1.674   1.674   1.674   1.674   1.674   1.674   1.674   1.674   1.674   1.674   1.674   1.674   1.674   1.674   1.674   1.674   1.674   1.674   1.674
   151.67    1.674   1.674   1.674   1.674   1.674   1.674   1.674   1.674   1.674   1.674   1.674   1.674   1.674   1.674   1.674   1.674   1.674   1.674   1.674   1.674   1.674   1.674   1.674   1.674   1.674
   140.00    1.674   1.674   1.674   1.674   1.674   1.674   1.674   1.674   1.674   1.674   1.674   1.674   1.674   1.674   1.674   1.674   1.674   1.674   1.674   1.674   1.674   1.674   1.674   1.674   1.674
   128.33    1.674   1.674   1.674   1.674   1.674   1.674   1.674   1.674   1.674   1.674   1.674   1.674   1.674   1.674   1.674   1.674   1.674   1.674   1.674   1.674   1.674   1.674   1.674   1.674   1.674
   116.67    1.674   1.674   1.674   1.674   1.674   1.674   1.674   1.674   1.674   1.674   1.674   1.674   1.674   1.674   1.674   1.674   1.674   1.674   1.674   1.674   1.674   1.674   1.674   1.674   1.674
   105.00    1.674   1.674   1.674   1.674   1.674   1.674   1.674   1.674   1.674   1.674   1.674   1.674   1.674   1.674   1.674   1.674   1.674   1.674   1.674   1.674   1.674   1.674   1.674   1.674   1.674
    93.33    1.674   1.674   1.674   1.674   1.674   1.674   1.674   1.674   1.674   1.674   1.674   1.674   1.674   1.674   1.674   1.674   1.674   1.674   1.674   1.674   1.674   1.674   1.674   1.674   1.674
    81.67    1.674   1.674   1.674   1.674   1.674   1.674   1.674   1.674   1.674   1.674   1.674   1.674   1.674   1.674   1.674   1.674   1.674   1.674   1.674   1.674   1.674   1.674   1.674   1.674   1.674
    70.00    1.674   1.674   1.674   1.674   1.674   1.674   1.674   1.674   1.674   1.674   1.674   1.674   1.674   1.674   1.674   1.674   1.674   1.674   1.674   1.674   1.674   1.674   1.674   1.674   1.674
    58.33    1.674   1.674   1.674   1.674   1.674   1.674   1.674   1.674   1.674   1.674   1.674   1.674   1.674   1.674   1.674   1.674   1.674   1.674   1.674   1.674   1.674   1.674   1.674   1.674   1.674
    46.67    1.674   1.674   1.674   1.674   1.674   1.674   1.674   1.674   1.674   1.674   1.674   1.674   1.674   1.674   1.674   1.674   1.674   1.674   1.674   1.674   1.674   1.674   1.674   1.674   1.674
    35.00    1.674   1.674   1.674   1.674   1.674   1.674   1.674   1.674   1.674   1.674   1.674   1.674   1.674   1.674   1.674   1.674   1.674   1.674   1.674   1.674   1.674   1.674   1.674   1.674   1.674
    23.33    1.674   1.674   1.674   1.674   1.674   1.674   1.674   1.674   1.674   1.674   1.674   1.674   1.674   1.674   1.674   1.674   1.674   1.674   1.674   1.674   1.674   1.674   1.674   1.674   1.674
    11.67    1.674   1.674   1.674   1.674   1.674   1.674   1.674   1.674   1.674   1.674   1.674   1.674   1.674   1.674   1.674   1.674   1.674   1.674   1.674   1.674   1.674   1.674   1.674   1.674   1.674
     0.00    1.674   1.674   1.674   1.674   1.674   1.674   1.674   1.674   1.674   1.674   1.674   1.674   1.674   1.674   1.674   1.674   1.674   1.674   1.674   1.674   1.674   1.674   1.674   1.674   1.674

   Mean standard deviation across all grid points:
      u component:    2.107 m/s
      v component:    2.187 m/s
      w component:    1.674 m/s


U-component (X) statistics from the interpolated hub point:

   Mean =  16.0442 m/s
   TI   =  11.2622 %


Processing complete.  4.1237 CPU seconds used.
