
This summary information was generated by ElastoDyn on 12-Oct-2022 at 14:31:38.


Turbine features:

            Upwind, 3-bladed rotor with rigid hub.
            The model has 20 of 24 DOFs active (enabled) at start-up.
 Enabled    Platform horizontal surge translation DOF 
 Enabled    Platform horizontal sway translation DOF 
 Enabled    Platform vertical heave translation DOF 
 Enabled    Platform roll tilt rotation DOF 
 Enabled    Platform pitch tilt rotation DOF 
 Enabled    Platform yaw rotation DOF 
 Enabled    1st tower fore-aft bending mode DOF 
 Enabled    1st tower side-to-side bending mode DOF 
 Enabled    2nd tower fore-aft bending mode DOF 
 Enabled    2nd tower side-to-side bending mode DOF 
 Disabled   Nacelle yaw DOF 
 Disabled   Rotor-furl DOF 
 Enabled    Variable speed generator DOF 
 Disabled   Drivetrain rotational-flexibility DOF 
 Disabled   Tail-furl DOF 
 Enabled    1st flapwise bending-mode DOF of blade 1 
 Enabled    1st edgewise bending-mode DOF of blade 1 
 Enabled    2nd flapwise bending-mode DOF of blade 1 
 Enabled    1st flapwise bending-mode DOF of blade 2 
 Enabled    1st edgewise bending-mode DOF of blade 2 
 Enabled    2nd flapwise bending-mode DOF of blade 2 
 Enabled    1st flapwise bending-mode DOF of blade 3 
 Enabled    1st edgewise bending-mode DOF of blade 3 
 Enabled    2nd flapwise bending-mode DOF of blade 3 


Time steps:

    Structural            (s)        0.01000000


Some calculated parameters:

    Hub-Height            (m)           150.000
    Flexible Tower Length (m)           129.386
    Flexible Blade Length (m)           117.000


Rotor mass properties:

    Rotor Mass            (kg)       295425.438
    Rotor Inertia         (kg-m^2)394040864.000
                                        Blade 1      Blade 2      Blade 3
                                        -------      -------      -------
    Mass                  (kg)        72897.805    72897.805    72897.805
    Second Mass Moment    (kg-m^2)113689664.000113689664.000113689664.000
    First Mass Moment     (kg-m)    2114531.500  2114531.500  2114531.500
    Center of Mass        (m)            29.007       29.007       29.007


Additional mass properties:

    Tower-top Mass        (kg)       969075.438
    Tower Mass            (kg)       813554.750
    Platform Mass         (kg)       450000.000
    Mass Incl. Platform   (kg)      2232630.250


Interpolated tower properties:

Node  TwFract   HNodes  DHNodes  TMassDen    FAStiff    SSStiff
 (-)      (-)      (m)      (m)    (kg/m)     (Nm^2)     (Nm^2)
   1    0.025    3.235    6.469  9739.938  3.097E+12  3.097E+12
   2    0.075    9.704    6.469  9484.278  3.016E+12  3.016E+12
   3    0.125   16.173    6.469  9121.807  2.894E+12  2.894E+12
   4    0.175   22.643    6.469  8754.868  2.759E+12  2.759E+12
   5    0.225   29.112    6.469  8373.121  2.594E+12  2.594E+12
   6    0.275   35.581    6.469  7907.206  2.337E+12  2.337E+12
   7    0.325   42.050    6.469  7538.503  2.119E+12  2.119E+12
   8    0.375   48.520    6.469  7140.163  1.885E+12  1.885E+12
   9    0.425   54.989    6.469  6760.186  1.672E+12  1.672E+12
  10    0.475   61.458    6.469  6365.901  1.461E+12  1.461E+12
  11    0.525   67.928    6.469  5971.788  1.268E+12  1.268E+12
  12    0.575   74.397    6.469  5564.412  1.081E+12  1.081E+12
  13    0.625   80.866    6.469  5147.595  9.099E+11  9.099E+11
  14    0.675   87.336    6.469  4817.697  7.950E+11  7.950E+11
  15    0.725   93.805    6.469  4431.247  6.862E+11  6.862E+11
  16    0.775  100.274    6.469  4101.928  6.134E+11  6.134E+11
  17    0.825  106.743    6.469  3806.911  5.569E+11  5.569E+11
  18    0.875  113.213    6.469  3515.721  5.024E+11  5.024E+11
  19    0.925  119.682    6.469  3499.115  4.871E+11  4.871E+11
  20    0.975  126.151    6.469  3713.835  5.076E+11  5.076E+11


Interpolated blade 1 properties:

Node  BlFract   RNodes  DRNodes PitchAxis  StrcTwst  BMassDen    FlpStff    EdgStff
 (-)      (-)      (m)      (m)       (-)     (deg)    (kg/m)     (Nm^2)     (Nm^2)
   1    0.010    5.140    2.340     0.498    15.593  3011.609  1.456E+11  1.451E+11
   2    0.030    7.480    2.340     0.482    15.528  2681.612  1.316E+11  1.310E+11
   3    0.050    9.820    2.340     0.464    15.234  2333.301  1.119E+11  1.146E+11
   4    0.070   12.160    2.340     0.446    14.673  1965.082  8.653E+10  9.350E+10
   5    0.090   14.500    2.340     0.427    13.916  1706.013  6.614E+10  7.797E+10
   6    0.110   16.840    2.340     0.409    13.022  1552.720  5.053E+10  6.834E+10
   7    0.130   19.180    2.340     0.392    12.044  1277.315  3.944E+10  5.830E+10
   8    0.150   21.520    2.340     0.376    11.031  1049.651  3.296E+10  5.094E+10
   9    0.170   23.860    2.340     0.360    10.036   871.253  2.950E+10  4.580E+10
  10    0.190   26.200    2.340     0.348     9.125   752.654  2.672E+10  4.290E+10
  11    0.210   28.540    2.340     0.337     8.335   677.082  2.375E+10  4.163E+10
  12    0.230   30.880    2.340     0.329     7.659   634.153  2.078E+10  4.148E+10
  13    0.250   33.220    2.340     0.323     7.030   609.292  1.828E+10  4.173E+10
  14    0.270   35.560    2.340     0.318     6.408   595.887  1.607E+10  4.222E+10
  15    0.290   37.900    2.340     0.314     5.808   594.843  1.480E+10  4.257E+10
  16    0.310   40.240    2.340     0.311     5.240   601.163  1.412E+10  4.247E+10
  17    0.330   42.580    2.340     0.308     4.710   605.000  1.332E+10  4.154E+10
  18    0.350   44.920    2.340     0.306     4.226   603.753  1.199E+10  4.000E+10
  19    0.370   47.260    2.340     0.304     3.789   596.772  1.051E+10  3.802E+10
  20    0.390   49.600    2.340     0.302     3.400   584.400  9.402E+09  3.561E+10
  21    0.410   51.940    2.340     0.299     3.043   568.496  8.684E+09  3.285E+10
  22    0.430   54.280    2.340     0.296     2.709   548.520  8.083E+09  2.972E+10
  23    0.450   56.620    2.340     0.294     2.396   524.544  7.389E+09  2.630E+10
  24    0.470   58.960    2.340     0.292     2.102   498.782  6.515E+09  2.292E+10
  25    0.490   61.300    2.340     0.290     1.825   472.804  5.636E+09  1.973E+10
  26    0.510   63.640    2.340     0.289     1.560   449.005  4.935E+09  1.695E+10
  27    0.530   65.980    2.340     0.288     1.310   427.611  4.418E+09  1.457E+10
  28    0.550   68.320    2.340     0.288     1.075   406.906  3.957E+09  1.241E+10
  29    0.570   70.660    2.340     0.288     0.858   385.690  3.464E+09  1.036E+10
  30    0.590   73.000    2.340     0.288     0.654   364.172  3.010E+09  8.422E+09
  31    0.610   75.340    2.340     0.289     0.459   343.056  2.638E+09  6.682E+09
  32    0.630   77.680    2.340     0.291     0.265   323.081  2.341E+09  5.238E+09
  33    0.650   80.020    2.340     0.293     0.070   304.433  2.071E+09  4.093E+09
  34    0.670   82.360    2.340     0.295    -0.136   287.429  1.802E+09  3.294E+09
  35    0.690   84.700    2.340     0.297    -0.362   271.659  1.536E+09  2.812E+09
  36    0.710   87.040    2.340     0.300    -0.621   254.342  1.282E+09  2.465E+09
  37    0.730   89.380    2.340     0.303    -0.925   232.910  1.046E+09  2.156E+09
  38    0.750   91.720    2.340     0.306    -1.241   209.243  8.467E+08  1.871E+09
  39    0.770   94.060    2.340     0.309    -1.546   184.833  6.818E+08  1.609E+09
  40    0.790   96.400    2.340     0.312    -1.815   160.999  5.422E+08  1.373E+09
  41    0.810   98.740    2.340     0.315    -2.037   132.767  4.199E+08  9.983E+08
  42    0.830  101.080    2.340     0.319    -2.151   110.183  3.208E+08  7.705E+08
  43    0.850  103.420    2.340     0.323    -2.174    91.238  2.472E+08  6.018E+08
  44    0.870  105.760    2.340     0.328    -2.165    74.717  1.871E+08  4.629E+08
  45    0.890  108.100    2.340     0.333    -2.127    61.165  1.365E+08  3.592E+08
  46    0.910  110.440    2.340     0.338    -2.058    50.082  9.477E+07  2.798E+08
  47    0.930  112.780    2.340     0.343    -1.957    40.584  6.140E+07  2.126E+08
  48    0.950  115.120    2.340     0.350    -1.814    32.160  3.634E+07  1.520E+08
  49    0.970  117.460    2.340     0.356    -1.620    23.786  1.929E+07  1.000E+08
  50    0.990  119.800    2.340     0.364    -1.378    14.158  6.633E+06  4.469E+07


Interpolated blade 2 properties:

Node  BlFract   RNodes  DRNodes PitchAxis  StrcTwst  BMassDen    FlpStff    EdgStff
 (-)      (-)      (m)      (m)       (-)     (deg)    (kg/m)     (Nm^2)     (Nm^2)
   1    0.010    5.140    2.340     0.498    15.593  3011.609  1.456E+11  1.451E+11
   2    0.030    7.480    2.340     0.482    15.528  2681.612  1.316E+11  1.310E+11
   3    0.050    9.820    2.340     0.464    15.234  2333.301  1.119E+11  1.146E+11
   4    0.070   12.160    2.340     0.446    14.673  1965.082  8.653E+10  9.350E+10
   5    0.090   14.500    2.340     0.427    13.916  1706.013  6.614E+10  7.797E+10
   6    0.110   16.840    2.340     0.409    13.022  1552.720  5.053E+10  6.834E+10
   7    0.130   19.180    2.340     0.392    12.044  1277.315  3.944E+10  5.830E+10
   8    0.150   21.520    2.340     0.376    11.031  1049.651  3.296E+10  5.094E+10
   9    0.170   23.860    2.340     0.360    10.036   871.253  2.950E+10  4.580E+10
  10    0.190   26.200    2.340     0.348     9.125   752.654  2.672E+10  4.290E+10
  11    0.210   28.540    2.340     0.337     8.335   677.082  2.375E+10  4.163E+10
  12    0.230   30.880    2.340     0.329     7.659   634.153  2.078E+10  4.148E+10
  13    0.250   33.220    2.340     0.323     7.030   609.292  1.828E+10  4.173E+10
  14    0.270   35.560    2.340     0.318     6.408   595.887  1.607E+10  4.222E+10
  15    0.290   37.900    2.340     0.314     5.808   594.843  1.480E+10  4.257E+10
  16    0.310   40.240    2.340     0.311     5.240   601.163  1.412E+10  4.247E+10
  17    0.330   42.580    2.340     0.308     4.710   605.000  1.332E+10  4.154E+10
  18    0.350   44.920    2.340     0.306     4.226   603.753  1.199E+10  4.000E+10
  19    0.370   47.260    2.340     0.304     3.789   596.772  1.051E+10  3.802E+10
  20    0.390   49.600    2.340     0.302     3.400   584.400  9.402E+09  3.561E+10
  21    0.410   51.940    2.340     0.299     3.043   568.496  8.684E+09  3.285E+10
  22    0.430   54.280    2.340     0.296     2.709   548.520  8.083E+09  2.972E+10
  23    0.450   56.620    2.340     0.294     2.396   524.544  7.389E+09  2.630E+10
  24    0.470   58.960    2.340     0.292     2.102   498.782  6.515E+09  2.292E+10
  25    0.490   61.300    2.340     0.290     1.825   472.804  5.636E+09  1.973E+10
  26    0.510   63.640    2.340     0.289     1.560   449.005  4.935E+09  1.695E+10
  27    0.530   65.980    2.340     0.288     1.310   427.611  4.418E+09  1.457E+10
  28    0.550   68.320    2.340     0.288     1.075   406.906  3.957E+09  1.241E+10
  29    0.570   70.660    2.340     0.288     0.858   385.690  3.464E+09  1.036E+10
  30    0.590   73.000    2.340     0.288     0.654   364.172  3.010E+09  8.422E+09
  31    0.610   75.340    2.340     0.289     0.459   343.056  2.638E+09  6.682E+09
  32    0.630   77.680    2.340     0.291     0.265   323.081  2.341E+09  5.238E+09
  33    0.650   80.020    2.340     0.293     0.070   304.433  2.071E+09  4.093E+09
  34    0.670   82.360    2.340     0.295    -0.136   287.429  1.802E+09  3.294E+09
  35    0.690   84.700    2.340     0.297    -0.362   271.659  1.536E+09  2.812E+09
  36    0.710   87.040    2.340     0.300    -0.621   254.342  1.282E+09  2.465E+09
  37    0.730   89.380    2.340     0.303    -0.925   232.910  1.046E+09  2.156E+09
  38    0.750   91.720    2.340     0.306    -1.241   209.243  8.467E+08  1.871E+09
  39    0.770   94.060    2.340     0.309    -1.546   184.833  6.818E+08  1.609E+09
  40    0.790   96.400    2.340     0.312    -1.815   160.999  5.422E+08  1.373E+09
  41    0.810   98.740    2.340     0.315    -2.037   132.767  4.199E+08  9.983E+08
  42    0.830  101.080    2.340     0.319    -2.151   110.183  3.208E+08  7.705E+08
  43    0.850  103.420    2.340     0.323    -2.174    91.238  2.472E+08  6.018E+08
  44    0.870  105.760    2.340     0.328    -2.165    74.717  1.871E+08  4.629E+08
  45    0.890  108.100    2.340     0.333    -2.127    61.165  1.365E+08  3.592E+08
  46    0.910  110.440    2.340     0.338    -2.058    50.082  9.477E+07  2.798E+08
  47    0.930  112.780    2.340     0.343    -1.957    40.584  6.140E+07  2.126E+08
  48    0.950  115.120    2.340     0.350    -1.814    32.160  3.634E+07  1.520E+08
  49    0.970  117.460    2.340     0.356    -1.620    23.786  1.929E+07  1.000E+08
  50    0.990  119.800    2.340     0.364    -1.378    14.158  6.633E+06  4.469E+07


Interpolated blade 3 properties:

Node  BlFract   RNodes  DRNodes PitchAxis  StrcTwst  BMassDen    FlpStff    EdgStff
 (-)      (-)      (m)      (m)       (-)     (deg)    (kg/m)     (Nm^2)     (Nm^2)
   1    0.010    5.140    2.340     0.498    15.593  3011.609  1.456E+11  1.451E+11
   2    0.030    7.480    2.340     0.482    15.528  2681.612  1.316E+11  1.310E+11
   3    0.050    9.820    2.340     0.464    15.234  2333.301  1.119E+11  1.146E+11
   4    0.070   12.160    2.340     0.446    14.673  1965.082  8.653E+10  9.350E+10
   5    0.090   14.500    2.340     0.427    13.916  1706.013  6.614E+10  7.797E+10
   6    0.110   16.840    2.340     0.409    13.022  1552.720  5.053E+10  6.834E+10
   7    0.130   19.180    2.340     0.392    12.044  1277.315  3.944E+10  5.830E+10
   8    0.150   21.520    2.340     0.376    11.031  1049.651  3.296E+10  5.094E+10
   9    0.170   23.860    2.340     0.360    10.036   871.253  2.950E+10  4.580E+10
  10    0.190   26.200    2.340     0.348     9.125   752.654  2.672E+10  4.290E+10
  11    0.210   28.540    2.340     0.337     8.335   677.082  2.375E+10  4.163E+10
  12    0.230   30.880    2.340     0.329     7.659   634.153  2.078E+10  4.148E+10
  13    0.250   33.220    2.340     0.323     7.030   609.292  1.828E+10  4.173E+10
  14    0.270   35.560    2.340     0.318     6.408   595.887  1.607E+10  4.222E+10
  15    0.290   37.900    2.340     0.314     5.808   594.843  1.480E+10  4.257E+10
  16    0.310   40.240    2.340     0.311     5.240   601.163  1.412E+10  4.247E+10
  17    0.330   42.580    2.340     0.308     4.710   605.000  1.332E+10  4.154E+10
  18    0.350   44.920    2.340     0.306     4.226   603.753  1.199E+10  4.000E+10
  19    0.370   47.260    2.340     0.304     3.789   596.772  1.051E+10  3.802E+10
  20    0.390   49.600    2.340     0.302     3.400   584.400  9.402E+09  3.561E+10
  21    0.410   51.940    2.340     0.299     3.043   568.496  8.684E+09  3.285E+10
  22    0.430   54.280    2.340     0.296     2.709   548.520  8.083E+09  2.972E+10
  23    0.450   56.620    2.340     0.294     2.396   524.544  7.389E+09  2.630E+10
  24    0.470   58.960    2.340     0.292     2.102   498.782  6.515E+09  2.292E+10
  25    0.490   61.300    2.340     0.290     1.825   472.804  5.636E+09  1.973E+10
  26    0.510   63.640    2.340     0.289     1.560   449.005  4.935E+09  1.695E+10
  27    0.530   65.980    2.340     0.288     1.310   427.611  4.418E+09  1.457E+10
  28    0.550   68.320    2.340     0.288     1.075   406.906  3.957E+09  1.241E+10
  29    0.570   70.660    2.340     0.288     0.858   385.690  3.464E+09  1.036E+10
  30    0.590   73.000    2.340     0.288     0.654   364.172  3.010E+09  8.422E+09
  31    0.610   75.340    2.340     0.289     0.459   343.056  2.638E+09  6.682E+09
  32    0.630   77.680    2.340     0.291     0.265   323.081  2.341E+09  5.238E+09
  33    0.650   80.020    2.340     0.293     0.070   304.433  2.071E+09  4.093E+09
  34    0.670   82.360    2.340     0.295    -0.136   287.429  1.802E+09  3.294E+09
  35    0.690   84.700    2.340     0.297    -0.362   271.659  1.536E+09  2.812E+09
  36    0.710   87.040    2.340     0.300    -0.621   254.342  1.282E+09  2.465E+09
  37    0.730   89.380    2.340     0.303    -0.925   232.910  1.046E+09  2.156E+09
  38    0.750   91.720    2.340     0.306    -1.241   209.243  8.467E+08  1.871E+09
  39    0.770   94.060    2.340     0.309    -1.546   184.833  6.818E+08  1.609E+09
  40    0.790   96.400    2.340     0.312    -1.815   160.999  5.422E+08  1.373E+09
  41    0.810   98.740    2.340     0.315    -2.037   132.767  4.199E+08  9.983E+08
  42    0.830  101.080    2.340     0.319    -2.151   110.183  3.208E+08  7.705E+08
  43    0.850  103.420    2.340     0.323    -2.174    91.238  2.472E+08  6.018E+08
  44    0.870  105.760    2.340     0.328    -2.165    74.717  1.871E+08  4.629E+08
  45    0.890  108.100    2.340     0.333    -2.127    61.165  1.365E+08  3.592E+08
  46    0.910  110.440    2.340     0.338    -2.058    50.082  9.477E+07  2.798E+08
  47    0.930  112.780    2.340     0.343    -1.957    40.584  6.140E+07  2.126E+08
  48    0.950  115.120    2.340     0.350    -1.814    32.160  3.634E+07  1.520E+08
  49    0.970  117.460    2.340     0.356    -1.620    23.786  1.929E+07  1.000E+08
  50    0.990  119.800    2.340     0.364    -1.378    14.158  6.633E+06  4.469E+07


Requested Outputs:


 Col   Parameter            Units               
 ---   ---------------      ---------------     
   0   Time                 (s)                 
   1   Azimuth              (deg)               
   2   BldPitch1            (deg)               
   3   BldPitch2            (deg)               
   4   BldPitch3            (deg)               
   5   GenSpeed             (rpm)               
   6   IPDefl1              (m)                 
   7   LSSGagMya            (kN-m)              
   8   LSSGagMza            (kN-m)              
   9   LSSTipMys            (kN-m)              
  10   LSSTipMzs            (kN-m)              
  11   LSShftFys            (kN)                
  12   LSShftFzs            (kN)                
  13   NacYaw               (deg)               
  14   NcIMUTAxs            (m/s^2)             
  15   NcIMUTAys            (m/s^2)             
  16   NcIMUTAzs            (m/s^2)             
  17   OoPDefl1             (m)                 
  18   PtfmHeave            (m)                 
  19   PtfmPitch            (deg)               
  20   PtfmRoll             (deg)               
  21   PtfmSurge            (m)                 
  22   PtfmSway             (m)                 
  23   PtfmYaw              (deg)               
  24   RootFxb1             (kN)                
  25   RootFxb2             (kN)                
  26   RootFxb3             (kN)                
  27   RootFxc1             (kN)                
  28   RootFxc2             (kN)                
  29   RootFxc3             (kN)                
  30   RootFyb1             (kN)                
  31   RootFyb2             (kN)                
  32   RootFyb3             (kN)                
  33   RootFyc1             (kN)                
  34   RootFyc2             (kN)                
  35   RootFyc3             (kN)                
  36   RootFzb1             (kN)                
  37   RootFzb2             (kN)                
  38   RootFzb3             (kN)                
  39   RootFzc1             (kN)                
  40   RootFzc2             (kN)                
  41   RootFzc3             (kN)                
  42   RootMxb1             (kN-m)              
  43   RootMxb2             (kN-m)              
  44   RootMxb3             (kN-m)              
  45   RootMxc1             (kN-m)              
  46   RootMxc2             (kN-m)              
  47   RootMxc3             (kN-m)              
  48   RootMyb1             (kN-m)              
  49   RootMyb2             (kN-m)              
  50   RootMyb3             (kN-m)              
  51   RootMyc1             (kN-m)              
  52   RootMyc2             (kN-m)              
  53   RootMyc3             (kN-m)              
  54   RootMzb1             (kN-m)              
  55   RootMzb2             (kN-m)              
  56   RootMzb3             (kN-m)              
  57   RootMzc1             (kN-m)              
  58   RootMzc2             (kN-m)              
  59   RootMzc3             (kN-m)              
  60   RotSpeed             (rpm)               
  61   RotThrust            (kN)                
  62   RotTorq              (kN-m)              
  63   Spn1MLxb1            (kN-m)              
  64   Spn1MLyb1            (kN-m)              
  65   Spn2MLxb1            (kN-m)              
  66   Spn2MLyb1            (kN-m)              
  67   Spn3MLxb1            (kN-m)              
  68   Spn3MLyb1            (kN-m)              
  69   Spn4MLxb1            INVALID             
  70   Spn4MLyb1            INVALID             
  71   Spn5MLxb1            INVALID             
  72   Spn5MLyb1            INVALID             
  73   Spn6MLxb1            INVALID             
  74   Spn6MLyb1            INVALID             
  75   Spn7MLxb1            INVALID             
  76   Spn7MLyb1            INVALID             
  77   Spn8MLxb1            INVALID             
  78   Spn8MLyb1            INVALID             
  79   Spn9MLxb1            INVALID             
  80   Spn9MLyb1            INVALID             
  81   TTDspTwst            (deg)               
  82   TipDxb1              (m)                 
  83   TipDxb2              (m)                 
  84   TipDxb3              (m)                 
  85   TipDxc1              (m)                 
  86   TipDxc2              (m)                 
  87   TipDxc3              (m)                 
  88   TipDyb1              (m)                 
  89   TipDyb2              (m)                 
  90   TipDyb3              (m)                 
  91   TipDyc1              (m)                 
  92   TipDyc2              (m)                 
  93   TipDyc3              (m)                 
  94   TipDzb1              (m)                 
  95   TipDzb2              (m)                 
  96   TipDzb3              (m)                 
  97   TipDzc1              (m)                 
  98   TipDzc2              (m)                 
  99   TipDzc3              (m)                 
 100   TwHt1TPxi            (m)                 
 101   TwHt1TPyi            (m)                 
 102   TwrBsFxt             (kN)                
 103   TwrBsFyt             (kN)                
 104   TwrBsFzt             (kN)                
 105   TwrBsMxt             (kN-m)              
 106   TwrBsMyt             (kN-m)              
 107   TwrBsMzt             (kN-m)              
 108   TwstDefl1            (deg)               
 109   YawBrFxp             (kN)                
 110   YawBrFyp             (kN)                
 111   YawBrFzp             (kN)                
 112   YawBrMxp             (kN-m)              
 113   YawBrMyp             (kN-m)              
 114   YawBrMzp             (kN-m)              
 115   YawBrTDxt            (m)                 
 116   YawBrTDyt            (m)                 


  Requested Output Channels at each blade station:
 Col   Parameter            Units               
 ---   ---------------      ---------------     
