
This summary information was generated by AeroDyn on 12-Oct-2022 at 14:28:39.

======  General Options  ============================================================================
            1  WakeMod        - Type of wake/induction model: Blade-Element/Momentum Theory
            2  AFAeroMod      - Type of blade airfoil aerodynamics model: Beddoes-Leishman unsteady model
            1  TwrPotent      - Type of tower influence on wind based on potential flow around the tower: baseline potential flow
            1  TwrShadow      - Type of tower influence on wind based on downstream tower shadow: Powles tower shadow model
            T  TwrAero        - Calculate tower aerodynamic loads? Yes
======  Blade-Element/Momentum Theory Options  ======================================================
            2  SkewMod        - Type of skewed-wake correction model: Pitt/Peters
            T  TipLoss        - Use the Prandtl tip-loss model? Yes
            T  HubLoss        - Use the Prandtl hub-loss model? Yes
            T  TanInd         - Include tangential induction in BEMT calculations? Yes
            T  AIDrag         - Include the drag term in the axial-induction calculation? Yes
            T  TIDrag         - Include the drag term in the tangential-induction calculation? Yes
   5.0000E-05  IndToler       - Convergence tolerance for BEM induction factors (radians)
======  Beddoes-Leishman Unsteady Airfoil Aerodynamics Options  =====================================
            3  UAMod          - Unsteady Aero Model: Minnema/Pierce variant (changes in Cc and Cm)
            T  FLookup        - Use a lookup for f'? Yes
======  Outputs  ====================================================================================
            9  NBlOuts        - Number of blade nodes selected for output
           50  NumBlNds       - Number of blade nodes in the analysis
               Blade nodes selected for output:  Output node  Analysis node
                                                 -----------  -------------
                                                           1              1
                                                           2              6
                                                           3             11
                                                           4             20
                                                           5             30
                                                           6             38
                                                           7             43
                                                           8             47
                                                           9             50
            0  NTwOuts        - Number of tower nodes selected for output
               Requested Output Channels:
               Col   Parameter       Units
               ----  --------------  -----
                  0  Time                 (s)                 
                  1  RtAeroCp             (-)                 
                  2  RtAeroCt             (-)                 
                  3  RtAeroFxh            (N)                 
                  4  RtAeroFyh            (N)                 
                  5  RtAeroFzh            (N)                 
                  6  RtAeroMxh            (N-m)               
                  7  RtAeroMyh            (N-m)               
                  8  RtAeroMzh            (N-m)               
                  9  RtArea               (m^2)               
                 10  RtSpeed              (rpm)               
                 11  RtTSR                (-)                 
                 12  RtVAvgxh             (m/s)               


               Requested Output Channels at each blade station:
               Col   Parameter       Units
               ----  --------------  -----
