
This summary file was generated by HydroDyn  on 12-Oct-2022 at 14:49:03.

WAMIT Model - Body    1
------------------
  Displaced volume (m^3)                 :     2.020635E+04
  X-offset of the center of buoyancy (m) :     0.000000E+00
  Y-offset of the center of buoyancy (m) :     0.000000E+00


  Buoyancy loads from members modelled with WAMIT, summed about ( 0.0, 0.0, 0.0 )
                                BuoyFxi               BuoyFyi               BuoyFzi               BuoyMxi               BuoyMyi               BuoyMzi 
                                  (N)                   (N)                   (N)                  (N-m)                 (N-m)                 (N-m)  
  External:                 0.000000E+00          0.000000E+00          2.031799E+08          0.000000E+00         -0.000000E+00          0.000000E+00



Strip-Theory Volume Calculations(m^3)
-------------------------------------
  Structure Volume     :    0.00000E+00
  Submerged Volume     :    0.00000E+00
  Marine Growth Volume :    0.00000E+00
  Ballasted Volume     :    0.00000E+00
              NOTE: Structure, Submerged and Marine Growth volumes are based on members not modelled with WAMIT
                      Ballasted volume is computed from all members which are marked as filled in the HydroDyn input file, regardless of PropPot flag



Total Buoyancy loads summed about ( 0.0, 0.0, 0.0 )
---------------------------------------------------
                                BuoyFxi               BuoyFyi               BuoyFzi               BuoyMxi               BuoyMyi               BuoyMzi 
                                  (N)                   (N)                   (N)                  (N-m)                 (N-m)                 (N-m)  
 External:                  0.000000E+00          0.000000E+00          0.000000E+00          0.000000E+00          0.000000E+00          0.000000E+00
 Internal:                  0.000000E+00          0.000000E+00          0.000000E+00          0.000000E+00          0.000000E+00          0.000000E+00
 Total   :                  0.000000E+00          0.000000E+00          0.000000E+00          0.000000E+00          0.000000E+00          0.000000E+00
              NOTE: External buoyancy is based on members not modelled with WAMIT
                      Internal buoyancy is computed from all members which are marked as filled in the HydroDyn input file, regardless of PropPot flag
                    Total buoyancy does not include WAMIT-modelled buoyancy contribution



Weight loads about ( 0.0, 0.0, 0.0 )
------------------------------------
                                 MGFxi                 MGFyi                 MGFzi                 MGMxi                 MGMyi                 MGMzi  
                                  (N)                   (N)                   (N)                  (N-m)                 (N-m)                 (N-m)  
 Marine Growth:             0.000000E+00          0.000000E+00          0.000000E+00          0.000000E+00          0.000000E+00          0.000000E+00



Nodes (first [   2 ] are joints, remainder are internal nodes)


   i      MbrIndx      Nxi         Nyi         Nzi           R          t          tMG        MGDens     PropPot    FilledFlag  FilledMass      Cd          Ca          Cp         AxCd        AxCa        AxCp        JAxCd       JAxCa       JAxCp  
  (-)       (-)        (m)         (m)         (m)          (m)        (m)         (m)       (kg/m^3)      (-)         (-)        (kg)          (-)         (-)         (-)         (-)         (-)         (-)         (-)         (-)         (-)   
     1      -           0.0000      0.0000    -13.1800      -           -        0.000E+00   0.000E+00      -           -           -           -           -           -           -           -           -        0.000E+00   0.000E+00   0.000E+00
     2      -           0.0000      0.0000    -14.1800      -           -        0.000E+00   0.000E+00      -           -           -           -           -           -           -           -           -        0.000E+00   0.000E+00   0.000E+00



 Members


 MemberID  joint1  joint2      Length       NElem         Volume       MGVolume          R1           t1             R2           t2          PropPot      FilledFlag   FillDensity    FillFSLoc     FillMass         Cd1            Ca1          Cp1          AxCd1         AxCa1         AxCp1        JAxCd1        JAxCa1       JAxCp1           Cd2           Ca2           Cp2          AxCd2         AxCa2         AxCp2        JAxCd2        JAxCa2        JAxCp2   
   (-)      (-)     (-)         (m)          (-)          (m^3)         (m^3)            (m)          (m)            (m)          (m)           (-)           (-)        (kg/m^3)         (-)          (kg)           (-)            (-)          (-)           (-)           (-)           (-)           (-)           (-)          (-)            (-)           (-)           (-)           (-)           (-)           (-)           (-)           (-)           (-)    
        1       2       1   1.00000E+00             1   0.00000E+00   0.00000E+00   5.00000E-06   1.00000E-06   5.00000E-06   1.00000E-06             T             F   0.00000E+00   0.00000E+00   0.00000E+00   1.00000E+00   1.00000E+00   1.00000E+00   0.00000E+00   1.00000E+00   1.00000E+00   0.00000E+00   0.00000E+00   0.00000E+00   1.00000E+00   1.00000E+00   1.00000E+00   0.00000E+00   1.00000E+00   1.00000E+00   0.00000E+00   0.00000E+00   0.00000E+00



Requested Member Outputs


   Label         Xi          Yi          Zi       MemberID    StartXi     StartYi     StartZi      EndXi       EndYi       EndZi        Loc    
    (-)          (m)         (m)         (m)        (-)         (m)         (m)         (m)         (m)         (m)         (m)         (-)    



 Requested Joint Outputs


   Label         Xi          Yi          Zi      InpJointID
    (-)          (m)         (m)         (m)        (-)    



 Wave Kinematics


       m              k          Omega[m]       Direction    REAL(DFT{WaveElev})  IMAG(DFT{WaveElev})
      (-)           (1/m)        (rad/s)          (deg)             (m)                  (m)         
      -1699     1.60783E+01    -1.25590E+01     0.00000E+00     0.00000E+00         -0.00000E+00
      -1698     1.60594E+01    -1.25516E+01     0.00000E+00    -0.00000E+00         -0.00000E+00
      -1697     1.60404E+01    -1.25442E+01     0.00000E+00     0.00000E+00          0.00000E+00
      -1696     1.60216E+01    -1.25368E+01     0.00000E+00     0.00000E+00          0.00000E+00
      -1695     1.60027E+01    -1.25294E+01     0.00000E+00     0.00000E+00         -0.00000E+00
      -1694     1.59838E+01    -1.25220E+01     0.00000E+00     0.00000E+00         -0.00000E+00
      -1693     1.59649E+01    -1.25146E+01     0.00000E+00    -0.00000E+00         -0.00000E+00
      -1692     1.59461E+01    -1.25072E+01     0.00000E+00     0.00000E+00          0.00000E+00
      -1691     1.59272E+01    -1.24998E+01     0.00000E+00     0.00000E+00         -0.00000E+00
      -1690     1.59084E+01    -1.24925E+01     0.00000E+00     0.00000E+00         -0.00000E+00
      -1689     1.58896E+01    -1.24851E+01     0.00000E+00    -0.00000E+00         -0.00000E+00
      -1688     1.58708E+01    -1.24777E+01     0.00000E+00    -0.00000E+00         -0.00000E+00
      -1687     1.58520E+01    -1.24703E+01     0.00000E+00     0.00000E+00         -0.00000E+00
      -1686     1.58332E+01    -1.24629E+01     0.00000E+00     0.00000E+00         -0.00000E+00
      -1685     1.58144E+01    -1.24555E+01     0.00000E+00     0.00000E+00         -0.00000E+00
      -1684     1.57956E+01    -1.24481E+01     0.00000E+00     0.00000E+00         -0.00000E+00
      -1683     1.57769E+01    -1.24407E+01     0.00000E+00     0.00000E+00         -0.00000E+00
      -1682     1.57581E+01    -1.24333E+01     0.00000E+00     0.00000E+00         -0.00000E+00
      -1681     1.57394E+01    -1.24259E+01     0.00000E+00    -0.00000E+00         -0.00000E+00
      -1680     1.57207E+01    -1.24185E+01     0.00000E+00     0.00000E+00         -0.00000E+00
      -1679     1.57020E+01    -1.24111E+01     0.00000E+00    -0.00000E+00         -0.00000E+00
      -1678     1.56833E+01    -1.24037E+01     0.00000E+00    -0.00000E+00         -0.00000E+00
      -1677     1.56646E+01    -1.23964E+01     0.00000E+00    -0.00000E+00         -0.00000E+00
      -1676     1.56459E+01    -1.23890E+01     0.00000E+00     0.00000E+00          0.00000E+00
      -1675     1.56272E+01    -1.23816E+01     0.00000E+00     0.00000E+00         -0.00000E+00
      -1674     1.56086E+01    -1.23742E+01     0.00000E+00     0.00000E+00         -0.00000E+00
      -1673     1.55900E+01    -1.23668E+01     0.00000E+00    -0.00000E+00         -0.00000E+00
      -1672     1.55713E+01    -1.23594E+01     0.00000E+00     0.00000E+00         -0.00000E+00
      -1671     1.55527E+01    -1.23520E+01     0.00000E+00     0.00000E+00         -0.00000E+00
      -1670     1.55341E+01    -1.23446E+01     0.00000E+00     0.00000E+00         -0.00000E+00
      -1669     1.55155E+01    -1.23372E+01     0.00000E+00     0.00000E+00          0.00000E+00
      -1668     1.54969E+01    -1.23298E+01     0.00000E+00     0.00000E+00         -0.00000E+00
      -1667     1.54783E+01    -1.23224E+01     0.00000E+00     0.00000E+00          0.00000E+00
      -1666     1.54598E+01    -1.23150E+01     0.00000E+00     0.00000E+00         -0.00000E+00
      -1665     1.54412E+01    -1.23077E+01     0.00000E+00    -0.00000E+00         -0.00000E+00
      -1664     1.54227E+01    -1.23003E+01     0.00000E+00     0.00000E+00         -0.00000E+00
      -1663     1.54041E+01    -1.22929E+01     0.00000E+00     0.00000E+00          0.00000E+00
      -1662     1.53856E+01    -1.22855E+01     0.00000E+00     0.00000E+00         -0.00000E+00
      -1661     1.53671E+01    -1.22781E+01     0.00000E+00    -0.00000E+00         -0.00000E+00
      -1660     1.53486E+01    -1.22707E+01     0.00000E+00     0.00000E+00         -0.00000E+00
      -1659     1.53301E+01    -1.22633E+01     0.00000E+00     0.00000E+00         -0.00000E+00
      -1658     1.53116E+01    -1.22559E+01     0.00000E+00    -0.00000E+00         -0.00000E+00
      -1657     1.52932E+01    -1.22485E+01     0.00000E+00     0.00000E+00         -0.00000E+00
      -1656     1.52747E+01    -1.22411E+01     0.00000E+00    -0.00000E+00         -0.00000E+00
      -1655     1.52563E+01    -1.22337E+01     0.00000E+00     0.00000E+00         -0.00000E+00
      -1654     1.52379E+01    -1.22263E+01     0.00000E+00     0.00000E+00         -0.00000E+00
      -1653     1.52194E+01    -1.22189E+01     0.00000E+00     0.00000E+00          0.00000E+00
      -1652     1.52010E+01    -1.22116E+01     0.00000E+00    -0.00000E+00         -0.00000E+00
      -1651     1.51826E+01    -1.22042E+01     0.00000E+00     0.00000E+00         -0.00000E+00
      -1650     1.51642E+01    -1.21968E+01     0.00000E+00     0.00000E+00         -0.00000E+00
      -1649     1.51459E+01    -1.21894E+01     0.00000E+00     0.00000E+00         -0.00000E+00
      -1648     1.51275E+01    -1.21820E+01     0.00000E+00    -0.00000E+00         -0.00000E+00
      -1647     1.51092E+01    -1.21746E+01     0.00000E+00     0.00000E+00         -0.00000E+00
      -1646     1.50908E+01    -1.21672E+01     0.00000E+00    -0.00000E+00         -0.00000E+00
      -1645     1.50725E+01    -1.21598E+01     0.00000E+00     0.00000E+00         -0.00000E+00
      -1644     1.50542E+01    -1.21524E+01     0.00000E+00     0.00000E+00         -0.00000E+00
      -1643     1.50358E+01    -1.21450E+01     0.00000E+00     0.00000E+00         -0.00000E+00
      -1642     1.50176E+01    -1.21376E+01     0.00000E+00     0.00000E+00          0.00000E+00
      -1641     1.49993E+01    -1.21302E+01     0.00000E+00     0.00000E+00         -0.00000E+00
      -1640     1.49810E+01    -1.21229E+01     0.00000E+00    -0.00000E+00         -0.00000E+00
      -1639     1.49627E+01    -1.21155E+01     0.00000E+00     0.00000E+00         -0.00000E+00
      -1638     1.49445E+01    -1.21081E+01     0.00000E+00     0.00000E+00         -0.00000E+00
      -1637     1.49262E+01    -1.21007E+01     0.00000E+00    -0.00000E+00         -0.00000E+00
      -1636     1.49080E+01    -1.20933E+01     0.00000E+00     0.00000E+00         -0.00000E+00
      -1635     1.48898E+01    -1.20859E+01     0.00000E+00     0.00000E+00         -0.00000E+00
      -1634     1.48716E+01    -1.20785E+01     0.00000E+00     0.00000E+00         -0.00000E+00
      -1633     1.48534E+01    -1.20711E+01     0.00000E+00     0.00000E+00          0.00000E+00
      -1632     1.48352E+01    -1.20637E+01     0.00000E+00     0.00000E+00         -0.00000E+00
      -1631     1.48170E+01    -1.20563E+01     0.00000E+00     0.00000E+00         -0.00000E+00
      -1630     1.47989E+01    -1.20489E+01     0.00000E+00     0.00000E+00         -0.00000E+00
      -1629     1.47807E+01    -1.20415E+01     0.00000E+00    -0.00000E+00         -0.00000E+00
      -1628     1.47626E+01    -1.20341E+01     0.00000E+00     0.00000E+00          0.00000E+00
      -1627     1.47444E+01    -1.20268E+01     0.00000E+00     0.00000E+00         -0.00000E+00
      -1626     1.47263E+01    -1.20194E+01     0.00000E+00     0.00000E+00         -0.00000E+00
      -1625     1.47082E+01    -1.20120E+01     0.00000E+00     0.00000E+00          0.00000E+00
      -1624     1.46901E+01    -1.20046E+01     0.00000E+00    -0.00000E+00         -0.00000E+00
      -1623     1.46720E+01    -1.19972E+01     0.00000E+00     0.00000E+00         -0.00000E+00
      -1622     1.46539E+01    -1.19898E+01     0.00000E+00     0.00000E+00         -0.00000E+00
      -1621     1.46359E+01    -1.19824E+01     0.00000E+00     0.00000E+00         -0.00000E+00
      -1620     1.46178E+01    -1.19750E+01     0.00000E+00     0.00000E+00         -0.00000E+00
      -1619     1.45998E+01    -1.19676E+01     0.00000E+00     0.00000E+00          0.00000E+00
      -1618     1.45818E+01    -1.19602E+01     0.00000E+00     0.00000E+00         -0.00000E+00
      -1617     1.45637E+01    -1.19528E+01     0.00000E+00    -0.00000E+00         -0.00000E+00
      -1616     1.45457E+01    -1.19454E+01     0.00000E+00     0.00000E+00         -0.00000E+00
      -1615     1.45277E+01    -1.19381E+01     0.00000E+00     0.00000E+00         -0.00000E+00
      -1614     1.45097E+01    -1.19307E+01     0.00000E+00     0.00000E+00         -0.00000E+00
      -1613     1.44918E+01    -1.19233E+01     0.00000E+00     0.00000E+00         -0.00000E+00
      -1612     1.44738E+01    -1.19159E+01     0.00000E+00     0.00000E+00          0.00000E+00
      -1611     1.44559E+01    -1.19085E+01     0.00000E+00     0.00000E+00          0.00000E+00
      -1610     1.44379E+01    -1.19011E+01     0.00000E+00     0.00000E+00         -0.00000E+00
      -1609     1.44200E+01    -1.18937E+01     0.00000E+00     0.00000E+00         -0.00000E+00
      -1608     1.44021E+01    -1.18863E+01     0.00000E+00    -0.00000E+00         -0.00000E+00
      -1607     1.43842E+01    -1.18789E+01     0.00000E+00    -0.00000E+00         -0.00000E+00
      -1606     1.43663E+01    -1.18715E+01     0.00000E+00     0.00000E+00          0.00000E+00
      -1605     1.43484E+01    -1.18641E+01     0.00000E+00    -0.00000E+00         -0.00000E+00
      -1604     1.43305E+01    -1.18567E+01     0.00000E+00     0.00000E+00         -0.00000E+00
      -1603     1.43126E+01    -1.18493E+01     0.00000E+00    -0.00000E+00         -0.00000E+00
      -1602     1.42948E+01    -1.18420E+01     0.00000E+00     0.00000E+00         -0.00000E+00
      -1601     1.42770E+01    -1.18346E+01     0.00000E+00     0.00000E+00         -0.00000E+00
      -1600     1.42591E+01    -1.18272E+01     0.00000E+00     0.00000E+00         -0.00000E+00
      -1599     1.42413E+01    -1.18198E+01     0.00000E+00    -0.00000E+00         -0.00000E+00
      -1598     1.42235E+01    -1.18124E+01     0.00000E+00    -0.00000E+00         -0.00000E+00
      -1597     1.42057E+01    -1.18050E+01     0.00000E+00     0.00000E+00         -0.00000E+00
      -1596     1.41879E+01    -1.17976E+01     0.00000E+00     0.00000E+00         -0.00000E+00
      -1595     1.41701E+01    -1.17902E+01     0.00000E+00     0.00000E+00         -0.00000E+00
      -1594     1.41524E+01    -1.17828E+01     0.00000E+00     0.00000E+00         -0.00000E+00
      -1593     1.41346E+01    -1.17754E+01     0.00000E+00     0.00000E+00         -0.00000E+00
      -1592     1.41169E+01    -1.17680E+01     0.00000E+00     0.00000E+00         -0.00000E+00
      -1591     1.40992E+01    -1.17606E+01     0.00000E+00    -0.00000E+00         -0.00000E+00
      -1590     1.40814E+01    -1.17533E+01     0.00000E+00    -0.00000E+00         -0.00000E+00
      -1589     1.40637E+01    -1.17459E+01     0.00000E+00     0.00000E+00          0.00000E+00
      -1588     1.40460E+01    -1.17385E+01     0.00000E+00     0.00000E+00          0.00000E+00
      -1587     1.40284E+01    -1.17311E+01     0.00000E+00     0.00000E+00         -0.00000E+00
      -1586     1.40107E+01    -1.17237E+01     0.00000E+00     0.00000E+00         -0.00000E+00
      -1585     1.39930E+01    -1.17163E+01     0.00000E+00     0.00000E+00         -0.00000E+00
      -1584     1.39754E+01    -1.17089E+01     0.00000E+00    -0.00000E+00         -0.00000E+00
      -1583     1.39577E+01    -1.17015E+01     0.00000E+00     0.00000E+00          0.00000E+00
      -1582     1.39401E+01    -1.16941E+01     0.00000E+00     0.00000E+00         -0.00000E+00
      -1581     1.39225E+01    -1.16867E+01     0.00000E+00     0.00000E+00         -0.00000E+00
      -1580     1.39049E+01    -1.16793E+01     0.00000E+00     0.00000E+00         -0.00000E+00
      -1579     1.38873E+01    -1.16719E+01     0.00000E+00     0.00000E+00         -0.00000E+00
      -1578     1.38697E+01    -1.16645E+01     0.00000E+00    -0.00000E+00         -0.00000E+00
      -1577     1.38521E+01    -1.16572E+01     0.00000E+00     0.00000E+00          0.00000E+00
      -1576     1.38346E+01    -1.16498E+01     0.00000E+00     0.00000E+00          0.00000E+00
      -1575     1.38170E+01    -1.16424E+01     0.00000E+00     0.00000E+00         -0.00000E+00
      -1574     1.37995E+01    -1.16350E+01     0.00000E+00     0.00000E+00          0.00000E+00
      -1573     1.37819E+01    -1.16276E+01     0.00000E+00     0.00000E+00         -0.00000E+00
      -1572     1.37644E+01    -1.16202E+01     0.00000E+00     0.00000E+00         -0.00000E+00
      -1571     1.37469E+01    -1.16128E+01     0.00000E+00     0.00000E+00         -0.00000E+00
      -1570     1.37294E+01    -1.16054E+01     0.00000E+00     0.00000E+00         -0.00000E+00
      -1569     1.37119E+01    -1.15980E+01     0.00000E+00     0.00000E+00         -0.00000E+00
      -1568     1.36945E+01    -1.15906E+01     0.00000E+00     0.00000E+00         -0.00000E+00
      -1567     1.36770E+01    -1.15832E+01     0.00000E+00     0.00000E+00         -0.00000E+00
      -1566     1.36595E+01    -1.15758E+01     0.00000E+00     0.00000E+00          0.00000E+00
      -1565     1.36421E+01    -1.15685E+01     0.00000E+00     0.00000E+00         -0.00000E+00
      -1564     1.36247E+01    -1.15611E+01     0.00000E+00    -0.00000E+00         -0.00000E+00
      -1563     1.36073E+01    -1.15537E+01     0.00000E+00    -0.00000E+00         -0.00000E+00
      -1562     1.35899E+01    -1.15463E+01     0.00000E+00     0.00000E+00         -0.00000E+00
      -1561     1.35725E+01    -1.15389E+01     0.00000E+00    -0.00000E+00         -0.00000E+00
      -1560     1.35551E+01    -1.15315E+01     0.00000E+00     0.00000E+00         -0.00000E+00
      -1559     1.35377E+01    -1.15241E+01     0.00000E+00     0.00000E+00         -0.00000E+00
      -1558     1.35203E+01    -1.15167E+01     0.00000E+00     0.00000E+00         -0.00000E+00
      -1557     1.35030E+01    -1.15093E+01     0.00000E+00     0.00000E+00         -0.00000E+00
      -1556     1.34857E+01    -1.15019E+01     0.00000E+00     0.00000E+00         -0.00000E+00
      -1555     1.34683E+01    -1.14945E+01     0.00000E+00     0.00000E+00          0.00000E+00
      -1554     1.34510E+01    -1.14871E+01     0.00000E+00    -0.00000E+00         -0.00000E+00
      -1553     1.34337E+01    -1.14797E+01     0.00000E+00     0.00000E+00         -0.00000E+00
      -1552     1.34164E+01    -1.14724E+01     0.00000E+00     0.00000E+00         -0.00000E+00
      -1551     1.33991E+01    -1.14650E+01     0.00000E+00     0.00000E+00          0.00000E+00
      -1550     1.33819E+01    -1.14576E+01     0.00000E+00     0.00000E+00          0.00000E+00
      -1549     1.33646E+01    -1.14502E+01     0.00000E+00    -0.00000E+00         -0.00000E+00
      -1548     1.33473E+01    -1.14428E+01     0.00000E+00     0.00000E+00          0.00000E+00
      -1547     1.33301E+01    -1.14354E+01     0.00000E+00    -0.00000E+00         -0.00000E+00
      -1546     1.33129E+01    -1.14280E+01     0.00000E+00    -0.00000E+00         -0.00000E+00
      -1545     1.32957E+01    -1.14206E+01     0.00000E+00     0.00000E+00         -0.00000E+00
      -1544     1.32785E+01    -1.14132E+01     0.00000E+00     0.00000E+00          0.00000E+00
      -1543     1.32613E+01    -1.14058E+01     0.00000E+00     0.00000E+00         -0.00000E+00
      -1542     1.32441E+01    -1.13984E+01     0.00000E+00     0.00000E+00          0.00000E+00
      -1541     1.32269E+01    -1.13910E+01     0.00000E+00    -0.00000E+00         -0.00000E+00
      -1540     1.32097E+01    -1.13837E+01     0.00000E+00     0.00000E+00          0.00000E+00
      -1539     1.31926E+01    -1.13763E+01     0.00000E+00     0.00000E+00          0.00000E+00
      -1538     1.31755E+01    -1.13689E+01     0.00000E+00     0.00000E+00          0.00000E+00
      -1537     1.31583E+01    -1.13615E+01     0.00000E+00     0.00000E+00          0.00000E+00
      -1536     1.31412E+01    -1.13541E+01     0.00000E+00     0.00000E+00          0.00000E+00
      -1535     1.31241E+01    -1.13467E+01     0.00000E+00     0.00000E+00         -0.00000E+00
      -1534     1.31070E+01    -1.13393E+01     0.00000E+00    -0.00000E+00         -0.00000E+00
      -1533     1.30899E+01    -1.13319E+01     0.00000E+00     0.00000E+00         -0.00000E+00
      -1532     1.30729E+01    -1.13245E+01     0.00000E+00     0.00000E+00         -0.00000E+00
      -1531     1.30558E+01    -1.13171E+01     0.00000E+00    -0.00000E+00         -0.00000E+00
      -1530     1.30387E+01    -1.13097E+01     0.00000E+00     0.00000E+00         -0.00000E+00
      -1529     1.30217E+01    -1.13023E+01     0.00000E+00     0.00000E+00         -0.00000E+00
      -1528     1.30047E+01    -1.12949E+01     0.00000E+00    -0.00000E+00         -0.00000E+00
      -1527     1.29877E+01    -1.12876E+01     0.00000E+00     0.00000E+00         -0.00000E+00
      -1526     1.29707E+01    -1.12802E+01     0.00000E+00     0.00000E+00         -0.00000E+00
      -1525     1.29537E+01    -1.12728E+01     0.00000E+00     0.00000E+00         -0.00000E+00
      -1524     1.29367E+01    -1.12654E+01     0.00000E+00     0.00000E+00         -0.00000E+00
      -1523     1.29197E+01    -1.12580E+01     0.00000E+00     0.00000E+00         -0.00000E+00
      -1522     1.29027E+01    -1.12506E+01     0.00000E+00    -0.00000E+00         -0.00000E+00
      -1521     1.28858E+01    -1.12432E+01     0.00000E+00     0.00000E+00         -0.00000E+00
      -1520     1.28689E+01    -1.12358E+01     0.00000E+00     0.00000E+00         -0.00000E+00
      -1519     1.28519E+01    -1.12284E+01     0.00000E+00     0.00000E+00         -0.00000E+00
      -1518     1.28350E+01    -1.12210E+01     0.00000E+00     0.00000E+00          0.00000E+00
      -1517     1.28181E+01    -1.12136E+01     0.00000E+00     0.00000E+00         -0.00000E+00
      -1516     1.28012E+01    -1.12062E+01     0.00000E+00    -0.00000E+00         -0.00000E+00
      -1515     1.27843E+01    -1.11989E+01     0.00000E+00     0.00000E+00         -0.00000E+00
      -1514     1.27675E+01    -1.11915E+01     0.00000E+00     0.00000E+00         -0.00000E+00
      -1513     1.27506E+01    -1.11841E+01     0.00000E+00     0.00000E+00         -0.00000E+00
      -1512     1.27338E+01    -1.11767E+01     0.00000E+00     0.00000E+00         -0.00000E+00
      -1511     1.27169E+01    -1.11693E+01     0.00000E+00     0.00000E+00         -0.00000E+00
      -1510     1.27001E+01    -1.11619E+01     0.00000E+00     0.00000E+00         -0.00000E+00
      -1509     1.26833E+01    -1.11545E+01     0.00000E+00    -0.00000E+00         -0.00000E+00
      -1508     1.26665E+01    -1.11471E+01     0.00000E+00     0.00000E+00          0.00000E+00
      -1507     1.26497E+01    -1.11397E+01     0.00000E+00     0.00000E+00         -0.00000E+00
      -1506     1.26329E+01    -1.11323E+01     0.00000E+00     0.00000E+00         -0.00000E+00
      -1505     1.26161E+01    -1.11249E+01     0.00000E+00     0.00000E+00          0.00000E+00
      -1504     1.25994E+01    -1.11175E+01     0.00000E+00     0.00000E+00         -0.00000E+00
      -1503     1.25826E+01    -1.11102E+01     0.00000E+00    -0.00000E+00         -0.00000E+00
      -1502     1.25659E+01    -1.11028E+01     0.00000E+00     0.00000E+00         -0.00000E+00
      -1501     1.25491E+01    -1.10954E+01     0.00000E+00     0.00000E+00          0.00000E+00
      -1500     1.25324E+01    -1.10880E+01     0.00000E+00    -0.00000E+00         -0.00000E+00
      -1499     1.25157E+01    -1.10806E+01     0.00000E+00    -0.00000E+00         -0.00000E+00
      -1498     1.24990E+01    -1.10732E+01     0.00000E+00     0.00000E+00         -0.00000E+00
      -1497     1.24824E+01    -1.10658E+01     0.00000E+00     0.00000E+00         -0.00000E+00
      -1496     1.24657E+01    -1.10584E+01     0.00000E+00    -0.00000E+00         -0.00000E+00
      -1495     1.24490E+01    -1.10510E+01     0.00000E+00     0.00000E+00          0.00000E+00
      -1494     1.24324E+01    -1.10436E+01     0.00000E+00    -0.00000E+00         -0.00000E+00
      -1493     1.24157E+01    -1.10362E+01     0.00000E+00     0.00000E+00         -0.00000E+00
      -1492     1.23991E+01    -1.10288E+01     0.00000E+00     0.00000E+00          0.00000E+00
      -1491     1.23825E+01    -1.10214E+01     0.00000E+00     0.00000E+00         -0.00000E+00
      -1490     1.23659E+01    -1.10141E+01     0.00000E+00     0.00000E+00         -0.00000E+00
      -1489     1.23493E+01    -1.10067E+01     0.00000E+00     0.00000E+00         -0.00000E+00
      -1488     1.23327E+01    -1.09993E+01     0.00000E+00     0.00000E+00         -0.00000E+00
      -1487     1.23161E+01    -1.09919E+01     0.00000E+00     0.00000E+00         -0.00000E+00
      -1486     1.22996E+01    -1.09845E+01     0.00000E+00     0.00000E+00         -0.00000E+00
      -1485     1.22830E+01    -1.09771E+01     0.00000E+00     0.00000E+00          0.00000E+00
      -1484     1.22665E+01    -1.09697E+01     0.00000E+00     0.00000E+00         -0.00000E+00
      -1483     1.22500E+01    -1.09623E+01     0.00000E+00     0.00000E+00         -0.00000E+00
      -1482     1.22335E+01    -1.09549E+01     0.00000E+00    -0.00000E+00         -0.00000E+00
      -1481     1.22170E+01    -1.09475E+01     0.00000E+00    -0.00000E+00         -0.00000E+00
      -1480     1.22005E+01    -1.09401E+01     0.00000E+00    -0.00000E+00         -0.00000E+00
      -1479     1.21840E+01    -1.09327E+01     0.00000E+00    -0.00000E+00         -0.00000E+00
      -1478     1.21675E+01    -1.09254E+01     0.00000E+00     0.00000E+00         -0.00000E+00
      -1477     1.21511E+01    -1.09180E+01     0.00000E+00     0.00000E+00         -0.00000E+00
      -1476     1.21346E+01    -1.09106E+01     0.00000E+00     0.00000E+00          0.00000E+00
      -1475     1.21182E+01    -1.09032E+01     0.00000E+00    -0.00000E+00         -0.00000E+00
      -1474     1.21017E+01    -1.08958E+01     0.00000E+00     0.00000E+00         -0.00000E+00
      -1473     1.20853E+01    -1.08884E+01     0.00000E+00     0.00000E+00         -0.00000E+00
      -1472     1.20689E+01    -1.08810E+01     0.00000E+00     0.00000E+00         -0.00000E+00
      -1471     1.20525E+01    -1.08736E+01     0.00000E+00     0.00000E+00         -0.00000E+00
      -1470     1.20361E+01    -1.08662E+01     0.00000E+00     0.00000E+00          0.00000E+00
      -1469     1.20198E+01    -1.08588E+01     0.00000E+00     0.00000E+00         -0.00000E+00
      -1468     1.20034E+01    -1.08514E+01     0.00000E+00     0.00000E+00         -0.00000E+00
      -1467     1.19871E+01    -1.08440E+01     0.00000E+00    -0.00000E+00         -0.00000E+00
      -1466     1.19707E+01    -1.08366E+01     0.00000E+00    -0.00000E+00         -0.00000E+00
      -1465     1.19544E+01    -1.08293E+01     0.00000E+00     0.00000E+00         -0.00000E+00
      -1464     1.19381E+01    -1.08219E+01     0.00000E+00     0.00000E+00         -0.00000E+00
      -1463     1.19218E+01    -1.08145E+01     0.00000E+00    -0.00000E+00         -0.00000E+00
      -1462     1.19055E+01    -1.08071E+01     0.00000E+00     0.00000E+00         -0.00000E+00
      -1461     1.18892E+01    -1.07997E+01     0.00000E+00     0.00000E+00         -0.00000E+00
      -1460     1.18729E+01    -1.07923E+01     0.00000E+00    -0.00000E+00         -0.00000E+00
      -1459     1.18567E+01    -1.07849E+01     0.00000E+00    -0.00000E+00         -0.00000E+00
      -1458     1.18404E+01    -1.07775E+01     0.00000E+00     0.00000E+00          0.00000E+00
      -1457     1.18242E+01    -1.07701E+01     0.00000E+00     0.00000E+00         -0.00000E+00
      -1456     1.18080E+01    -1.07627E+01     0.00000E+00     0.00000E+00         -0.00000E+00
      -1455     1.17918E+01    -1.07553E+01     0.00000E+00     0.00000E+00          0.00000E+00
      -1454     1.17756E+01    -1.07479E+01     0.00000E+00    -0.00000E+00         -0.00000E+00
      -1453     1.17594E+01    -1.07406E+01     0.00000E+00     0.00000E+00         -0.00000E+00
      -1452     1.17432E+01    -1.07332E+01     0.00000E+00     0.00000E+00         -0.00000E+00
      -1451     1.17270E+01    -1.07258E+01     0.00000E+00     0.00000E+00          0.00000E+00
      -1450     1.17109E+01    -1.07184E+01     0.00000E+00     0.00000E+00          0.00000E+00
      -1449     1.16947E+01    -1.07110E+01     0.00000E+00     0.00000E+00          0.00000E+00
      -1448     1.16786E+01    -1.07036E+01     0.00000E+00    -0.00000E+00         -0.00000E+00
      -1447     1.16625E+01    -1.06962E+01     0.00000E+00     0.00000E+00         -0.00000E+00
      -1446     1.16463E+01    -1.06888E+01     0.00000E+00    -0.00000E+00         -0.00000E+00
      -1445     1.16302E+01    -1.06814E+01     0.00000E+00     0.00000E+00         -0.00000E+00
      -1444     1.16141E+01    -1.06740E+01     0.00000E+00    -0.00000E+00         -0.00000E+00
      -1443     1.15981E+01    -1.06666E+01     0.00000E+00     0.00000E+00          0.00000E+00
      -1442     1.15820E+01    -1.06592E+01     0.00000E+00    -0.00000E+00         -0.00000E+00
      -1441     1.15659E+01    -1.06518E+01     0.00000E+00     0.00000E+00         -0.00000E+00
      -1440     1.15499E+01    -1.06445E+01     0.00000E+00     0.00000E+00         -0.00000E+00
      -1439     1.15339E+01    -1.06371E+01     0.00000E+00    -0.00000E+00         -0.00000E+00
      -1438     1.15178E+01    -1.06297E+01     0.00000E+00     0.00000E+00         -0.00000E+00
      -1437     1.15018E+01    -1.06223E+01     0.00000E+00     0.00000E+00          0.00000E+00
      -1436     1.14858E+01    -1.06149E+01     0.00000E+00    -0.00000E+00         -0.00000E+00
      -1435     1.14698E+01    -1.06075E+01     0.00000E+00     0.00000E+00         -0.00000E+00
      -1434     1.14538E+01    -1.06001E+01     0.00000E+00     0.00000E+00         -0.00000E+00
      -1433     1.14379E+01    -1.05927E+01     0.00000E+00     0.00000E+00         -0.00000E+00
      -1432     1.14219E+01    -1.05853E+01     0.00000E+00     0.00000E+00          0.00000E+00
      -1431     1.14060E+01    -1.05779E+01     0.00000E+00     0.00000E+00          0.00000E+00
      -1430     1.13900E+01    -1.05705E+01     0.00000E+00     0.00000E+00          0.00000E+00
      -1429     1.13741E+01    -1.05631E+01     0.00000E+00    -0.00000E+00         -0.00000E+00
      -1428     1.13582E+01    -1.05558E+01     0.00000E+00    -0.00000E+00         -0.00000E+00
      -1427     1.13423E+01    -1.05484E+01     0.00000E+00    -0.00000E+00         -0.00000E+00
      -1426     1.13264E+01    -1.05410E+01     0.00000E+00     0.00000E+00         -0.00000E+00
      -1425     1.13105E+01    -1.05336E+01     0.00000E+00     0.00000E+00         -0.00000E+00
      -1424     1.12947E+01    -1.05262E+01     0.00000E+00     0.00000E+00         -0.00000E+00
      -1423     1.12788E+01    -1.05188E+01     0.00000E+00     0.00000E+00          0.00000E+00
      -1422     1.12629E+01    -1.05114E+01     0.00000E+00     0.00000E+00         -0.00000E+00
      -1421     1.12471E+01    -1.05040E+01     0.00000E+00    -0.00000E+00         -0.00000E+00
      -1420     1.12313E+01    -1.04966E+01     0.00000E+00    -0.00000E+00         -0.00000E+00
      -1419     1.12155E+01    -1.04892E+01     0.00000E+00    -0.00000E+00         -0.00000E+00
      -1418     1.11997E+01    -1.04818E+01     0.00000E+00     0.00000E+00         -0.00000E+00
      -1417     1.11839E+01    -1.04744E+01     0.00000E+00     0.00000E+00         -0.00000E+00
      -1416     1.11681E+01    -1.04670E+01     0.00000E+00     0.00000E+00         -0.00000E+00
      -1415     1.11523E+01    -1.04597E+01     0.00000E+00    -0.00000E+00         -0.00000E+00
      -1414     1.11366E+01    -1.04523E+01     0.00000E+00     0.00000E+00         -0.00000E+00
      -1413     1.11208E+01    -1.04449E+01     0.00000E+00     0.00000E+00         -0.00000E+00
      -1412     1.11051E+01    -1.04375E+01     0.00000E+00    -0.00000E+00         -0.00000E+00
      -1411     1.10894E+01    -1.04301E+01     0.00000E+00     0.00000E+00          0.00000E+00
      -1410     1.10737E+01    -1.04227E+01     0.00000E+00     0.00000E+00         -0.00000E+00
      -1409     1.10580E+01    -1.04153E+01     0.00000E+00    -0.00000E+00         -0.00000E+00
      -1408     1.10423E+01    -1.04079E+01     0.00000E+00     0.00000E+00          0.00000E+00
      -1407     1.10266E+01    -1.04005E+01     0.00000E+00    -0.00000E+00         -0.00000E+00
      -1406     1.10109E+01    -1.03931E+01     0.00000E+00     0.00000E+00          0.00000E+00
      -1405     1.09953E+01    -1.03857E+01     0.00000E+00     0.00000E+00          0.00000E+00
      -1404     1.09796E+01    -1.03783E+01     0.00000E+00     0.00000E+00          0.00000E+00
      -1403     1.09640E+01    -1.03710E+01     0.00000E+00     0.00000E+00         -0.00000E+00
      -1402     1.09484E+01    -1.03636E+01     0.00000E+00     0.00000E+00         -0.00000E+00
      -1401     1.09327E+01    -1.03562E+01     0.00000E+00     0.00000E+00         -0.00000E+00
      -1400     1.09171E+01    -1.03488E+01     0.00000E+00     0.00000E+00         -0.00000E+00
      -1399     1.09016E+01    -1.03414E+01     0.00000E+00    -0.00000E+00         -0.00000E+00
      -1398     1.08860E+01    -1.03340E+01     0.00000E+00    -0.00000E+00         -0.00000E+00
      -1397     1.08704E+01    -1.03266E+01     0.00000E+00     0.00000E+00          0.00000E+00
      -1396     1.08548E+01    -1.03192E+01     0.00000E+00    -0.00000E+00         -0.00000E+00
      -1395     1.08393E+01    -1.03118E+01     0.00000E+00    -0.00000E+00         -0.00000E+00
      -1394     1.08238E+01    -1.03044E+01     0.00000E+00     0.00000E+00         -0.00000E+00
      -1393     1.08082E+01    -1.02970E+01     0.00000E+00     0.00000E+00         -0.00000E+00
      -1392     1.07927E+01    -1.02896E+01     0.00000E+00     0.00000E+00         -0.00000E+00
      -1391     1.07772E+01    -1.02822E+01     0.00000E+00     0.00000E+00         -0.00000E+00
      -1390     1.07617E+01    -1.02749E+01     0.00000E+00     0.00000E+00         -0.00000E+00
      -1389     1.07463E+01    -1.02675E+01     0.00000E+00    -0.00000E+00         -0.00000E+00
      -1388     1.07308E+01    -1.02601E+01     0.00000E+00     0.00000E+00         -0.00000E+00
      -1387     1.07153E+01    -1.02527E+01     0.00000E+00     0.00000E+00         -0.00000E+00
      -1386     1.06999E+01    -1.02453E+01     0.00000E+00     0.00000E+00         -0.00000E+00
      -1385     1.06845E+01    -1.02379E+01     0.00000E+00    -0.00000E+00         -0.00000E+00
      -1384     1.06690E+01    -1.02305E+01     0.00000E+00     0.00000E+00          0.00000E+00
      -1383     1.06536E+01    -1.02231E+01     0.00000E+00    -0.00000E+00         -0.00000E+00
      -1382     1.06382E+01    -1.02157E+01     0.00000E+00     0.00000E+00          0.00000E+00
      -1381     1.06228E+01    -1.02083E+01     0.00000E+00     0.00000E+00         -0.00000E+00
      -1380     1.06075E+01    -1.02009E+01     0.00000E+00    -0.00000E+00         -0.00000E+00
      -1379     1.05921E+01    -1.01935E+01     0.00000E+00    -0.00000E+00         -0.00000E+00
      -1378     1.05767E+01    -1.01862E+01     0.00000E+00     0.00000E+00          0.00000E+00
      -1377     1.05614E+01    -1.01788E+01     0.00000E+00     0.00000E+00         -0.00000E+00
      -1376     1.05460E+01    -1.01714E+01     0.00000E+00     0.00000E+00         -0.00000E+00
      -1375     1.05307E+01    -1.01640E+01     0.00000E+00     0.00000E+00          0.00000E+00
      -1374     1.05154E+01    -1.01566E+01     0.00000E+00    -0.00000E+00         -0.00000E+00
      -1373     1.05001E+01    -1.01492E+01     0.00000E+00     0.00000E+00          0.00000E+00
      -1372     1.04848E+01    -1.01418E+01     0.00000E+00    -0.00000E+00         -0.00000E+00
      -1371     1.04695E+01    -1.01344E+01     0.00000E+00     0.00000E+00         -0.00000E+00
      -1370     1.04543E+01    -1.01270E+01     0.00000E+00    -0.00000E+00         -0.00000E+00
      -1369     1.04390E+01    -1.01196E+01     0.00000E+00     0.00000E+00         -0.00000E+00
      -1368     1.04238E+01    -1.01122E+01     0.00000E+00    -0.00000E+00         -0.00000E+00
      -1367     1.04085E+01    -1.01048E+01     0.00000E+00     0.00000E+00         -0.00000E+00
      -1366     1.03933E+01    -1.00974E+01     0.00000E+00     0.00000E+00         -0.00000E+00
      -1365     1.03781E+01    -1.00901E+01     0.00000E+00     0.00000E+00         -0.00000E+00
      -1364     1.03629E+01    -1.00827E+01     0.00000E+00     0.00000E+00         -0.00000E+00
      -1363     1.03477E+01    -1.00753E+01     0.00000E+00    -0.00000E+00         -0.00000E+00
      -1362     1.03325E+01    -1.00679E+01     0.00000E+00     0.00000E+00          0.00000E+00
      -1361     1.03174E+01    -1.00605E+01     0.00000E+00     0.00000E+00         -0.00000E+00
      -1360     1.03022E+01    -1.00531E+01     0.00000E+00     0.00000E+00         -0.00000E+00
      -1359     1.02871E+01    -1.00457E+01     0.00000E+00     0.00000E+00         -0.00000E+00
      -1358     1.02719E+01    -1.00383E+01     0.00000E+00     0.00000E+00          0.00000E+00
      -1357     1.02568E+01    -1.00309E+01     0.00000E+00    -0.00000E+00         -0.00000E+00
      -1356     1.02417E+01    -1.00235E+01     0.00000E+00    -0.00000E+00         -0.00000E+00
      -1355     1.02266E+01    -1.00161E+01     0.00000E+00     0.00000E+00         -0.00000E+00
      -1354     1.02115E+01    -1.00087E+01     0.00000E+00     0.00000E+00          0.00000E+00
      -1353     1.01964E+01    -1.00014E+01     0.00000E+00     0.00000E+00         -0.00000E+00
      -1352     1.01814E+01    -9.99396E+00     0.00000E+00    -0.00000E+00         -0.00000E+00
      -1351     1.01663E+01    -9.98657E+00     0.00000E+00     0.00000E+00          0.00000E+00
      -1350     1.01513E+01    -9.97918E+00     0.00000E+00     0.00000E+00         -0.00000E+00
      -1349     1.01362E+01    -9.97178E+00     0.00000E+00     0.00000E+00         -0.00000E+00
      -1348     1.01212E+01    -9.96439E+00     0.00000E+00     0.00000E+00          0.00000E+00
      -1347     1.01062E+01    -9.95700E+00     0.00000E+00    -0.00000E+00         -0.00000E+00
      -1346     1.00912E+01    -9.94961E+00     0.00000E+00    -0.00000E+00         -0.00000E+00
      -1345     1.00762E+01    -9.94222E+00     0.00000E+00     0.00000E+00         -0.00000E+00
      -1344     1.00612E+01    -9.93482E+00     0.00000E+00     0.00000E+00         -0.00000E+00
      -1343     1.00463E+01    -9.92743E+00     0.00000E+00     0.00000E+00         -0.00000E+00
      -1342     1.00313E+01    -9.92004E+00     0.00000E+00    -0.00000E+00         -0.00000E+00
      -1341     1.00164E+01    -9.91265E+00     0.00000E+00     0.00000E+00         -0.00000E+00
      -1340     1.00014E+01    -9.90526E+00     0.00000E+00     0.00000E+00         -0.00000E+00
      -1339     9.98652E+00    -9.89787E+00     0.00000E+00     0.00000E+00         -0.00000E+00
      -1338     9.97160E+00    -9.89047E+00     0.00000E+00     0.00000E+00          0.00000E+00
      -1337     9.95670E+00    -9.88308E+00     0.00000E+00    -0.00000E+00         -0.00000E+00
      -1336     9.94182E+00    -9.87569E+00     0.00000E+00    -0.00000E+00         -0.00000E+00
      -1335     9.92694E+00    -9.86830E+00     0.00000E+00    -0.00000E+00         -0.00000E+00
      -1334     9.91207E+00    -9.86090E+00     0.00000E+00     0.00000E+00         -0.00000E+00
      -1333     9.89722E+00    -9.85351E+00     0.00000E+00     0.00000E+00          0.00000E+00
      -1332     9.88237E+00    -9.84612E+00     0.00000E+00     0.00000E+00         -0.00000E+00
      -1331     9.86754E+00    -9.83873E+00     0.00000E+00     0.00000E+00         -0.00000E+00
      -1330     9.85272E+00    -9.83134E+00     0.00000E+00     0.00000E+00         -0.00000E+00
      -1329     9.83791E+00    -9.82395E+00     0.00000E+00     0.00000E+00         -0.00000E+00
      -1328     9.82311E+00    -9.81655E+00     0.00000E+00     0.00000E+00          0.00000E+00
      -1327     9.80832E+00    -9.80916E+00     0.00000E+00     0.00000E+00         -0.00000E+00
      -1326     9.79355E+00    -9.80177E+00     0.00000E+00     0.00000E+00         -0.00000E+00
      -1325     9.77878E+00    -9.79438E+00     0.00000E+00    -0.00000E+00         -0.00000E+00
      -1324     9.76402E+00    -9.78699E+00     0.00000E+00    -0.00000E+00         -0.00000E+00
      -1323     9.74928E+00    -9.77959E+00     0.00000E+00     0.00000E+00         -0.00000E+00
      -1322     9.73455E+00    -9.77220E+00     0.00000E+00     0.00000E+00          0.00000E+00
      -1321     9.71983E+00    -9.76481E+00     0.00000E+00    -0.00000E+00         -0.00000E+00
      -1320     9.70512E+00    -9.75742E+00     0.00000E+00     0.00000E+00         -0.00000E+00
      -1319     9.69042E+00    -9.75002E+00     0.00000E+00     0.00000E+00          0.00000E+00
      -1318     9.67573E+00    -9.74263E+00     0.00000E+00     0.00000E+00         -0.00000E+00
      -1317     9.66105E+00    -9.73524E+00     0.00000E+00     0.00000E+00          0.00000E+00
      -1316     9.64639E+00    -9.72785E+00     0.00000E+00    -0.00000E+00         -0.00000E+00
      -1315     9.63173E+00    -9.72046E+00     0.00000E+00     0.00000E+00         -0.00000E+00
      -1314     9.61709E+00    -9.71307E+00     0.00000E+00     0.00000E+00         -0.00000E+00
      -1313     9.60246E+00    -9.70567E+00     0.00000E+00     0.00000E+00         -0.00000E+00
      -1312     9.58783E+00    -9.69828E+00     0.00000E+00     0.00000E+00         -0.00000E+00
      -1311     9.57323E+00    -9.69089E+00     0.00000E+00     0.00000E+00          0.00000E+00
      -1310     9.55863E+00    -9.68350E+00     0.00000E+00    -0.00000E+00         -0.00000E+00
      -1309     9.54404E+00    -9.67611E+00     0.00000E+00    -0.00000E+00         -0.00000E+00
      -1308     9.52946E+00    -9.66871E+00     0.00000E+00     0.00000E+00         -0.00000E+00
      -1307     9.51490E+00    -9.66132E+00     0.00000E+00     0.00000E+00         -0.00000E+00
      -1306     9.50034E+00    -9.65393E+00     0.00000E+00     0.00000E+00         -0.00000E+00
      -1305     9.48580E+00    -9.64654E+00     0.00000E+00    -0.00000E+00         -0.00000E+00
      -1304     9.47127E+00    -9.63915E+00     0.00000E+00     0.00000E+00         -0.00000E+00
      -1303     9.45675E+00    -9.63175E+00     0.00000E+00    -0.00000E+00         -0.00000E+00
      -1302     9.44223E+00    -9.62436E+00     0.00000E+00    -0.00000E+00         -0.00000E+00
      -1301     9.42774E+00    -9.61697E+00     0.00000E+00    -0.00000E+00         -0.00000E+00
      -1300     9.41325E+00    -9.60958E+00     0.00000E+00     0.00000E+00          0.00000E+00
      -1299     9.39877E+00    -9.60219E+00     0.00000E+00     0.00000E+00          0.00000E+00
      -1298     9.38431E+00    -9.59479E+00     0.00000E+00     0.00000E+00          0.00000E+00
      -1297     9.36985E+00    -9.58740E+00     0.00000E+00    -0.00000E+00         -0.00000E+00
      -1296     9.35541E+00    -9.58001E+00     0.00000E+00    -0.00000E+00         -0.00000E+00
      -1295     9.34098E+00    -9.57262E+00     0.00000E+00    -0.00000E+00         -0.00000E+00
      -1294     9.32656E+00    -9.56523E+00     0.00000E+00     0.00000E+00         -0.00000E+00
      -1293     9.31215E+00    -9.55783E+00     0.00000E+00    -0.00000E+00         -0.00000E+00
      -1292     9.29775E+00    -9.55044E+00     0.00000E+00    -0.00000E+00         -0.00000E+00
      -1291     9.28336E+00    -9.54305E+00     0.00000E+00     0.00000E+00          0.00000E+00
      -1290     9.26899E+00    -9.53566E+00     0.00000E+00     0.00000E+00          0.00000E+00
      -1289     9.25462E+00    -9.52827E+00     0.00000E+00     0.00000E+00         -0.00000E+00
      -1288     9.24027E+00    -9.52087E+00     0.00000E+00     0.00000E+00         -0.00000E+00
      -1287     9.22593E+00    -9.51348E+00     0.00000E+00    -0.00000E+00         -0.00000E+00
      -1286     9.21159E+00    -9.50609E+00     0.00000E+00    -0.00000E+00         -0.00000E+00
      -1285     9.19727E+00    -9.49870E+00     0.00000E+00     0.00000E+00          0.00000E+00
      -1284     9.18296E+00    -9.49131E+00     0.00000E+00     0.00000E+00          0.00000E+00
      -1283     9.16866E+00    -9.48391E+00     0.00000E+00    -0.00000E+00         -0.00000E+00
      -1282     9.15438E+00    -9.47652E+00     0.00000E+00     0.00000E+00         -0.00000E+00
      -1281     9.14010E+00    -9.46913E+00     0.00000E+00    -0.00000E+00         -0.00000E+00
      -1280     9.12584E+00    -9.46174E+00     0.00000E+00     0.00000E+00          0.00000E+00
      -1279     9.11158E+00    -9.45435E+00     0.00000E+00     0.00000E+00         -0.00000E+00
      -1278     9.09734E+00    -9.44695E+00     0.00000E+00    -0.00000E+00         -0.00000E+00
      -1277     9.08311E+00    -9.43956E+00     0.00000E+00     0.00000E+00          0.00000E+00
      -1276     9.06889E+00    -9.43217E+00     0.00000E+00     0.00000E+00         -0.00000E+00
      -1275     9.05468E+00    -9.42478E+00     0.00000E+00     0.00000E+00         -0.00000E+00
      -1274     9.04048E+00    -9.41739E+00     0.00000E+00    -0.00000E+00         -0.00000E+00
      -1273     9.02630E+00    -9.40999E+00     0.00000E+00     0.00000E+00         -0.00000E+00
      -1272     9.01212E+00    -9.40260E+00     0.00000E+00    -0.00000E+00         -0.00000E+00
      -1271     8.99796E+00    -9.39521E+00     0.00000E+00     0.00000E+00         -0.00000E+00
      -1270     8.98380E+00    -9.38782E+00     0.00000E+00     0.00000E+00          0.00000E+00
      -1269     8.96966E+00    -9.38043E+00     0.00000E+00    -0.00000E+00         -0.00000E+00
      -1268     8.95553E+00    -9.37303E+00     0.00000E+00     0.00000E+00         -0.00000E+00
      -1267     8.94141E+00    -9.36564E+00     0.00000E+00     0.00000E+00          0.00000E+00
      -1266     8.92730E+00    -9.35825E+00     0.00000E+00     0.00000E+00          0.00000E+00
      -1265     8.91320E+00    -9.35086E+00     0.00000E+00     0.00000E+00         -0.00000E+00
      -1264     8.89912E+00    -9.34347E+00     0.00000E+00     0.00000E+00         -0.00000E+00
      -1263     8.88504E+00    -9.33607E+00     0.00000E+00     0.00000E+00         -0.00000E+00
      -1262     8.87098E+00    -9.32868E+00     0.00000E+00     0.00000E+00         -0.00000E+00
      -1261     8.85693E+00    -9.32129E+00     0.00000E+00     0.00000E+00         -0.00000E+00
      -1260     8.84288E+00    -9.31390E+00     0.00000E+00     0.00000E+00         -0.00000E+00
      -1259     8.82885E+00    -9.30651E+00     0.00000E+00    -0.00000E+00         -0.00000E+00
      -1258     8.81483E+00    -9.29911E+00     0.00000E+00     0.00000E+00          0.00000E+00
      -1257     8.80083E+00    -9.29172E+00     0.00000E+00     0.00000E+00         -0.00000E+00
      -1256     8.78683E+00    -9.28433E+00     0.00000E+00     0.00000E+00         -0.00000E+00
      -1255     8.77284E+00    -9.27694E+00     0.00000E+00    -0.00000E+00         -0.00000E+00
      -1254     8.75887E+00    -9.26955E+00     0.00000E+00     0.00000E+00         -0.00000E+00
      -1253     8.74490E+00    -9.26215E+00     0.00000E+00     0.00000E+00          0.00000E+00
      -1252     8.73095E+00    -9.25476E+00     0.00000E+00     0.00000E+00          0.00000E+00
      -1251     8.71701E+00    -9.24737E+00     0.00000E+00     0.00000E+00          0.00000E+00
      -1250     8.70308E+00    -9.23998E+00     0.00000E+00     0.00000E+00         -0.00000E+00
      -1249     8.68916E+00    -9.23259E+00     0.00000E+00     0.00000E+00         -0.00000E+00
      -1248     8.67525E+00    -9.22519E+00     0.00000E+00    -0.00000E+00         -0.00000E+00
      -1247     8.66135E+00    -9.21780E+00     0.00000E+00     0.00000E+00          0.00000E+00
      -1246     8.64747E+00    -9.21041E+00     0.00000E+00     0.00000E+00         -0.00000E+00
      -1245     8.63359E+00    -9.20302E+00     0.00000E+00     0.00000E+00         -0.00000E+00
      -1244     8.61973E+00    -9.19563E+00     0.00000E+00     0.00000E+00         -0.00000E+00
      -1243     8.60588E+00    -9.18823E+00     0.00000E+00     0.00000E+00         -0.00000E+00
      -1242     8.59203E+00    -9.18084E+00     0.00000E+00    -0.00000E+00         -0.00000E+00
      -1241     8.57820E+00    -9.17345E+00     0.00000E+00    -0.00000E+00         -0.00000E+00
      -1240     8.56439E+00    -9.16606E+00     0.00000E+00    -0.00000E+00         -0.00000E+00
      -1239     8.55058E+00    -9.15867E+00     0.00000E+00     0.00000E+00          0.00000E+00
      -1238     8.53678E+00    -9.15127E+00     0.00000E+00     0.00000E+00         -0.00000E+00
      -1237     8.52299E+00    -9.14388E+00     0.00000E+00     0.00000E+00          0.00000E+00
      -1236     8.50922E+00    -9.13649E+00     0.00000E+00    -0.00000E+00         -0.00000E+00
      -1235     8.49546E+00    -9.12910E+00     0.00000E+00     0.00000E+00         -0.00000E+00
      -1234     8.48171E+00    -9.12171E+00     0.00000E+00    -0.00000E+00         -0.00000E+00
      -1233     8.46797E+00    -9.11432E+00     0.00000E+00     0.00000E+00         -0.00000E+00
      -1232     8.45424E+00    -9.10692E+00     0.00000E+00     0.00000E+00         -0.00000E+00
      -1231     8.44052E+00    -9.09953E+00     0.00000E+00    -0.00000E+00         -0.00000E+00
      -1230     8.42681E+00    -9.09214E+00     0.00000E+00     0.00000E+00         -0.00000E+00
      -1229     8.41311E+00    -9.08475E+00     0.00000E+00    -0.00000E+00         -0.00000E+00
      -1228     8.39942E+00    -9.07735E+00     0.00000E+00     0.00000E+00          0.00000E+00
      -1227     8.38575E+00    -9.06996E+00     0.00000E+00    -0.00000E+00         -0.00000E+00
      -1226     8.37209E+00    -9.06257E+00     0.00000E+00     0.00000E+00         -0.00000E+00
      -1225     8.35844E+00    -9.05518E+00     0.00000E+00     0.00000E+00          0.00000E+00
      -1224     8.34480E+00    -9.04779E+00     0.00000E+00     0.00000E+00         -0.00000E+00
      -1223     8.33117E+00    -9.04039E+00     0.00000E+00     0.00000E+00          0.00000E+00
      -1222     8.31755E+00    -9.03300E+00     0.00000E+00    -0.00000E+00         -0.00000E+00
      -1221     8.30394E+00    -9.02561E+00     0.00000E+00     0.00000E+00          0.00000E+00
      -1220     8.29034E+00    -9.01822E+00     0.00000E+00     0.00000E+00         -0.00000E+00
      -1219     8.27676E+00    -9.01083E+00     0.00000E+00     0.00000E+00          0.00000E+00
      -1218     8.26318E+00    -9.00344E+00     0.00000E+00     0.00000E+00          0.00000E+00
      -1217     8.24962E+00    -8.99604E+00     0.00000E+00     0.00000E+00         -0.00000E+00
      -1216     8.23607E+00    -8.98865E+00     0.00000E+00     0.00000E+00         -0.00000E+00
      -1215     8.22253E+00    -8.98126E+00     0.00000E+00     0.00000E+00         -0.00000E+00
      -1214     8.20900E+00    -8.97387E+00     0.00000E+00     0.00000E+00         -0.00000E+00
      -1213     8.19548E+00    -8.96648E+00     0.00000E+00     0.00000E+00         -0.00000E+00
      -1212     8.18197E+00    -8.95908E+00     0.00000E+00     0.00000E+00         -0.00000E+00
      -1211     8.16848E+00    -8.95169E+00     0.00000E+00     0.00000E+00         -0.00000E+00
      -1210     8.15499E+00    -8.94430E+00     0.00000E+00     0.00000E+00         -0.00000E+00
      -1209     8.14152E+00    -8.93691E+00     0.00000E+00     0.00000E+00          0.00000E+00
      -1208     8.12806E+00    -8.92951E+00     0.00000E+00     0.00000E+00         -0.00000E+00
      -1207     8.11460E+00    -8.92212E+00     0.00000E+00     0.00000E+00         -0.00000E+00
      -1206     8.10116E+00    -8.91473E+00     0.00000E+00     0.00000E+00          0.00000E+00
      -1205     8.08774E+00    -8.90734E+00     0.00000E+00     0.00000E+00          0.00000E+00
      -1204     8.07432E+00    -8.89995E+00     0.00000E+00     0.00000E+00         -0.00000E+00
      -1203     8.06091E+00    -8.89256E+00     0.00000E+00     0.00000E+00         -0.00000E+00
      -1202     8.04751E+00    -8.88516E+00     0.00000E+00    -0.00000E+00         -0.00000E+00
      -1201     8.03413E+00    -8.87777E+00     0.00000E+00     0.00000E+00         -0.00000E+00
      -1200     8.02076E+00    -8.87038E+00     0.00000E+00     0.00000E+00         -0.00000E+00
      -1199     8.00739E+00    -8.86299E+00     0.00000E+00    -0.00000E+00         -0.00000E+00
      -1198     7.99404E+00    -8.85560E+00     0.00000E+00     0.00000E+00          0.00000E+00
      -1197     7.98070E+00    -8.84820E+00     0.00000E+00     0.00000E+00          0.00000E+00
      -1196     7.96737E+00    -8.84081E+00     0.00000E+00     0.00000E+00         -0.00000E+00
      -1195     7.95406E+00    -8.83342E+00     0.00000E+00     0.00000E+00         -0.00000E+00
      -1194     7.94075E+00    -8.82603E+00     0.00000E+00    -0.00000E+00         -0.00000E+00
      -1193     7.92745E+00    -8.81863E+00     0.00000E+00     0.00000E+00         -0.00000E+00
      -1192     7.91417E+00    -8.81124E+00     0.00000E+00     0.00000E+00          0.00000E+00
      -1191     7.90090E+00    -8.80385E+00     0.00000E+00     0.00000E+00         -0.00000E+00
      -1190     7.88763E+00    -8.79646E+00     0.00000E+00    -0.00000E+00         -0.00000E+00
      -1189     7.87438E+00    -8.78907E+00     0.00000E+00     0.00000E+00         -0.00000E+00
      -1188     7.86114E+00    -8.78168E+00     0.00000E+00     0.00000E+00          0.00000E+00
      -1187     7.84792E+00    -8.77428E+00     0.00000E+00     0.00000E+00          0.00000E+00
      -1186     7.83470E+00    -8.76689E+00     0.00000E+00     0.00000E+00          0.00000E+00
      -1185     7.82149E+00    -8.75950E+00     0.00000E+00     0.00000E+00          0.00000E+00
      -1184     7.80830E+00    -8.75211E+00     0.00000E+00     0.00000E+00         -0.00000E+00
      -1183     7.79511E+00    -8.74472E+00     0.00000E+00     0.00000E+00         -0.00000E+00
      -1182     7.78194E+00    -8.73732E+00     0.00000E+00     0.00000E+00         -0.00000E+00
      -1181     7.76878E+00    -8.72993E+00     0.00000E+00     0.00000E+00         -0.00000E+00
      -1180     7.75563E+00    -8.72254E+00     0.00000E+00     0.00000E+00         -0.00000E+00
      -1179     7.74249E+00    -8.71515E+00     0.00000E+00    -0.00000E+00         -0.00000E+00
      -1178     7.72936E+00    -8.70776E+00     0.00000E+00     0.00000E+00         -0.00000E+00
      -1177     7.71624E+00    -8.70036E+00     0.00000E+00     0.00000E+00         -0.00000E+00
      -1176     7.70313E+00    -8.69297E+00     0.00000E+00     0.00000E+00         -0.00000E+00
      -1175     7.69004E+00    -8.68558E+00     0.00000E+00     0.00000E+00         -0.00000E+00
      -1174     7.67696E+00    -8.67819E+00     0.00000E+00     0.00000E+00         -0.00000E+00
      -1173     7.66388E+00    -8.67080E+00     0.00000E+00    -0.00000E+00         -0.00000E+00
      -1172     7.65082E+00    -8.66340E+00     0.00000E+00    -0.00000E+00         -0.00000E+00
      -1171     7.63777E+00    -8.65601E+00     0.00000E+00    -0.00000E+00         -0.00000E+00
      -1170     7.62473E+00    -8.64862E+00     0.00000E+00     0.00000E+00         -0.00000E+00
      -1169     7.61170E+00    -8.64123E+00     0.00000E+00     0.00000E+00         -0.00000E+00
      -1168     7.59869E+00    -8.63384E+00     0.00000E+00     0.00000E+00          0.00000E+00
      -1167     7.58568E+00    -8.62644E+00     0.00000E+00    -0.00000E+00         -0.00000E+00
      -1166     7.57269E+00    -8.61905E+00     0.00000E+00    -0.00000E+00         -0.00000E+00
      -1165     7.55970E+00    -8.61166E+00     0.00000E+00    -0.00000E+00         -0.00000E+00
      -1164     7.54673E+00    -8.60427E+00     0.00000E+00     0.00000E+00         -0.00000E+00
      -1163     7.53377E+00    -8.59688E+00     0.00000E+00     0.00000E+00          0.00000E+00
      -1162     7.52082E+00    -8.58948E+00     0.00000E+00     0.00000E+00         -0.00000E+00
      -1161     7.50788E+00    -8.58209E+00     0.00000E+00     0.00000E+00         -0.00000E+00
      -1160     7.49495E+00    -8.57470E+00     0.00000E+00     0.00000E+00          0.00000E+00
      -1159     7.48204E+00    -8.56731E+00     0.00000E+00     0.00000E+00         -0.00000E+00
      -1158     7.46913E+00    -8.55992E+00     0.00000E+00     0.00000E+00          0.00000E+00
      -1157     7.45623E+00    -8.55252E+00     0.00000E+00     0.00000E+00         -0.00000E+00
      -1156     7.44335E+00    -8.54513E+00     0.00000E+00     0.00000E+00         -0.00000E+00
      -1155     7.43048E+00    -8.53774E+00     0.00000E+00     0.00000E+00          0.00000E+00
      -1154     7.41762E+00    -8.53035E+00     0.00000E+00     0.00000E+00          0.00000E+00
      -1153     7.40477E+00    -8.52296E+00     0.00000E+00     0.00000E+00          0.00000E+00
      -1152     7.39193E+00    -8.51556E+00     0.00000E+00     0.00000E+00         -0.00000E+00
      -1151     7.37910E+00    -8.50817E+00     0.00000E+00    -0.00000E+00         -0.00000E+00
      -1150     7.36629E+00    -8.50078E+00     0.00000E+00    -0.00000E+00         -0.00000E+00
      -1149     7.35348E+00    -8.49339E+00     0.00000E+00    -0.00000E+00         -0.00000E+00
      -1148     7.34069E+00    -8.48600E+00     0.00000E+00     0.00000E+00         -0.00000E+00
      -1147     7.32790E+00    -8.47860E+00     0.00000E+00     0.00000E+00         -0.00000E+00
      -1146     7.31513E+00    -8.47121E+00     0.00000E+00     0.00000E+00         -0.00000E+00
      -1145     7.30237E+00    -8.46382E+00     0.00000E+00    -0.00000E+00         -0.00000E+00
      -1144     7.28962E+00    -8.45643E+00     0.00000E+00     0.00000E+00         -0.00000E+00
      -1143     7.27688E+00    -8.44904E+00     0.00000E+00     0.00000E+00         -0.00000E+00
      -1142     7.26416E+00    -8.44164E+00     0.00000E+00     0.00000E+00         -0.00000E+00
      -1141     7.25144E+00    -8.43425E+00     0.00000E+00     0.00000E+00         -0.00000E+00
      -1140     7.23873E+00    -8.42686E+00     0.00000E+00     0.00000E+00          0.00000E+00
      -1139     7.22604E+00    -8.41947E+00     0.00000E+00     0.00000E+00          0.00000E+00
      -1138     7.21336E+00    -8.41208E+00     0.00000E+00     0.00000E+00         -0.00000E+00
      -1137     7.20068E+00    -8.40468E+00     0.00000E+00     0.00000E+00         -0.00000E+00
      -1136     7.18802E+00    -8.39729E+00     0.00000E+00     0.00000E+00         -0.00000E+00
      -1135     7.17537E+00    -8.38990E+00     0.00000E+00     0.00000E+00          0.00000E+00
      -1134     7.16274E+00    -8.38251E+00     0.00000E+00     0.00000E+00         -0.00000E+00
      -1133     7.15011E+00    -8.37512E+00     0.00000E+00     0.00000E+00          0.00000E+00
      -1132     7.13749E+00    -8.36772E+00     0.00000E+00     0.00000E+00         -0.00000E+00
      -1131     7.12489E+00    -8.36033E+00     0.00000E+00     0.00000E+00          0.00000E+00
      -1130     7.11230E+00    -8.35294E+00     0.00000E+00     0.00000E+00         -0.00000E+00
      -1129     7.09971E+00    -8.34555E+00     0.00000E+00     0.00000E+00          0.00000E+00
      -1128     7.08714E+00    -8.33816E+00     0.00000E+00     0.00000E+00         -0.00000E+00
      -1127     7.07458E+00    -8.33076E+00     0.00000E+00     0.00000E+00         -0.00000E+00
      -1126     7.06203E+00    -8.32337E+00     0.00000E+00     0.00000E+00         -0.00000E+00
      -1125     7.04949E+00    -8.31598E+00     0.00000E+00     0.00000E+00         -0.00000E+00
      -1124     7.03697E+00    -8.30859E+00     0.00000E+00    -0.00000E+00         -0.00000E+00
      -1123     7.02445E+00    -8.30120E+00     0.00000E+00     0.00000E+00         -0.00000E+00
      -1122     7.01195E+00    -8.29380E+00     0.00000E+00     0.00000E+00         -0.00000E+00
      -1121     6.99945E+00    -8.28641E+00     0.00000E+00     0.00000E+00         -0.00000E+00
      -1120     6.98697E+00    -8.27902E+00     0.00000E+00     0.00000E+00          0.00000E+00
      -1119     6.97450E+00    -8.27163E+00     0.00000E+00    -0.00000E+00         -0.00000E+00
      -1118     6.96204E+00    -8.26424E+00     0.00000E+00     0.00000E+00          0.00000E+00
      -1117     6.94959E+00    -8.25684E+00     0.00000E+00     0.00000E+00         -0.00000E+00
      -1116     6.93715E+00    -8.24945E+00     0.00000E+00    -0.00000E+00         -0.00000E+00
      -1115     6.92473E+00    -8.24206E+00     0.00000E+00    -0.00000E+00         -0.00000E+00
      -1114     6.91231E+00    -8.23467E+00     0.00000E+00     0.00000E+00          0.00000E+00
      -1113     6.89991E+00    -8.22728E+00     0.00000E+00    -0.00000E+00         -0.00000E+00
      -1112     6.88751E+00    -8.21988E+00     0.00000E+00     0.00000E+00         -0.00000E+00
      -1111     6.87513E+00    -8.21249E+00     0.00000E+00    -0.00000E+00         -0.00000E+00
      -1110     6.86276E+00    -8.20510E+00     0.00000E+00    -0.00000E+00         -0.00000E+00
      -1109     6.85040E+00    -8.19771E+00     0.00000E+00    -0.00000E+00         -0.00000E+00
      -1108     6.83805E+00    -8.19032E+00     0.00000E+00     0.00000E+00          0.00000E+00
      -1107     6.82571E+00    -8.18293E+00     0.00000E+00     0.00000E+00          0.00000E+00
      -1106     6.81339E+00    -8.17553E+00     0.00000E+00     0.00000E+00          0.00000E+00
      -1105     6.80107E+00    -8.16814E+00     0.00000E+00    -0.00000E+00         -0.00000E+00
      -1104     6.78877E+00    -8.16075E+00     0.00000E+00     0.00000E+00         -0.00000E+00
      -1103     6.77648E+00    -8.15336E+00     0.00000E+00     0.00000E+00          0.00000E+00
      -1102     6.76419E+00    -8.14596E+00     0.00000E+00     0.00000E+00         -0.00000E+00
      -1101     6.75192E+00    -8.13857E+00     0.00000E+00     0.00000E+00          0.00000E+00
      -1100     6.73966E+00    -8.13118E+00     0.00000E+00     0.00000E+00          0.00000E+00
      -1099     6.72742E+00    -8.12379E+00     0.00000E+00     0.00000E+00         -0.00000E+00
      -1098     6.71518E+00    -8.11640E+00     0.00000E+00    -0.00000E+00         -0.00000E+00
      -1097     6.70295E+00    -8.10900E+00     0.00000E+00     0.00000E+00         -0.00000E+00
      -1096     6.69074E+00    -8.10161E+00     0.00000E+00     0.00000E+00         -0.00000E+00
      -1095     6.67853E+00    -8.09422E+00     0.00000E+00    -0.00000E+00         -0.00000E+00
      -1094     6.66634E+00    -8.08683E+00     0.00000E+00     0.00000E+00         -0.00000E+00
      -1093     6.65416E+00    -8.07944E+00     0.00000E+00    -0.00000E+00         -0.00000E+00
      -1092     6.64199E+00    -8.07205E+00     0.00000E+00     0.00000E+00         -0.00000E+00
      -1091     6.62983E+00    -8.06465E+00     0.00000E+00     0.00000E+00          0.00000E+00
      -1090     6.61768E+00    -8.05726E+00     0.00000E+00     0.00000E+00          0.00000E+00
      -1089     6.60555E+00    -8.04987E+00     0.00000E+00     0.00000E+00         -0.00000E+00
      -1088     6.59342E+00    -8.04248E+00     0.00000E+00    -0.00000E+00         -0.00000E+00
      -1087     6.58130E+00    -8.03509E+00     0.00000E+00     0.00000E+00         -0.00000E+00
      -1086     6.56920E+00    -8.02769E+00     0.00000E+00     0.00000E+00         -0.00000E+00
      -1085     6.55711E+00    -8.02030E+00     0.00000E+00    -0.00000E+00         -0.00000E+00
      -1084     6.54503E+00    -8.01291E+00     0.00000E+00    -0.00000E+00         -0.00000E+00
      -1083     6.53296E+00    -8.00552E+00     0.00000E+00     0.00000E+00         -0.00000E+00
      -1082     6.52090E+00    -7.99813E+00     0.00000E+00     0.00000E+00         -0.00000E+00
      -1081     6.50885E+00    -7.99073E+00     0.00000E+00     0.00000E+00         -0.00000E+00
      -1080     6.49681E+00    -7.98334E+00     0.00000E+00     0.00000E+00         -0.00000E+00
      -1079     6.48479E+00    -7.97595E+00     0.00000E+00     0.00000E+00          0.00000E+00
      -1078     6.47277E+00    -7.96856E+00     0.00000E+00     0.00000E+00          0.00000E+00
      -1077     6.46077E+00    -7.96117E+00     0.00000E+00    -0.00000E+00         -0.00000E+00
      -1076     6.44878E+00    -7.95377E+00     0.00000E+00     0.00000E+00         -0.00000E+00
      -1075     6.43680E+00    -7.94638E+00     0.00000E+00     0.00000E+00          0.00000E+00
      -1074     6.42483E+00    -7.93899E+00     0.00000E+00    -0.00000E+00         -0.00000E+00
      -1073     6.41287E+00    -7.93160E+00     0.00000E+00    -0.00000E+00         -0.00000E+00
      -1072     6.40092E+00    -7.92421E+00     0.00000E+00    -0.00000E+00         -0.00000E+00
      -1071     6.38898E+00    -7.91681E+00     0.00000E+00     0.00000E+00         -0.00000E+00
      -1070     6.37706E+00    -7.90942E+00     0.00000E+00     0.00000E+00          0.00000E+00
      -1069     6.36514E+00    -7.90203E+00     0.00000E+00     0.00000E+00          0.00000E+00
      -1068     6.35324E+00    -7.89464E+00     0.00000E+00     0.00000E+00         -0.00000E+00
      -1067     6.34135E+00    -7.88725E+00     0.00000E+00     0.00000E+00          0.00000E+00
      -1066     6.32947E+00    -7.87985E+00     0.00000E+00     0.00000E+00         -0.00000E+00
      -1065     6.31760E+00    -7.87246E+00     0.00000E+00     0.00000E+00          0.00000E+00
      -1064     6.30574E+00    -7.86507E+00     0.00000E+00     0.00000E+00         -0.00000E+00
      -1063     6.29389E+00    -7.85768E+00     0.00000E+00     0.00000E+00         -0.00000E+00
      -1062     6.28206E+00    -7.85029E+00     0.00000E+00     0.00000E+00         -0.00000E+00
      -1061     6.27023E+00    -7.84289E+00     0.00000E+00     0.00000E+00          0.00000E+00
      -1060     6.25842E+00    -7.83550E+00     0.00000E+00     0.00000E+00         -0.00000E+00
      -1059     6.24662E+00    -7.82811E+00     0.00000E+00    -0.00000E+00         -0.00000E+00
      -1058     6.23482E+00    -7.82072E+00     0.00000E+00     0.00000E+00         -0.00000E+00
      -1057     6.22304E+00    -7.81333E+00     0.00000E+00    -0.00000E+00         -0.00000E+00
      -1056     6.21127E+00    -7.80593E+00     0.00000E+00    -0.00000E+00         -0.00000E+00
      -1055     6.19952E+00    -7.79854E+00     0.00000E+00    -0.00000E+00         -0.00000E+00
      -1054     6.18777E+00    -7.79115E+00     0.00000E+00     0.00000E+00         -0.00000E+00
      -1053     6.17603E+00    -7.78376E+00     0.00000E+00     0.00000E+00         -0.00000E+00
      -1052     6.16431E+00    -7.77637E+00     0.00000E+00     0.00000E+00         -0.00000E+00
      -1051     6.15259E+00    -7.76897E+00     0.00000E+00     0.00000E+00         -0.00000E+00
      -1050     6.14089E+00    -7.76158E+00     0.00000E+00     0.00000E+00         -0.00000E+00
      -1049     6.12920E+00    -7.75419E+00     0.00000E+00    -0.00000E+00         -0.00000E+00
      -1048     6.11752E+00    -7.74680E+00     0.00000E+00     0.00000E+00         -0.00000E+00
      -1047     6.10585E+00    -7.73941E+00     0.00000E+00     0.00000E+00         -0.00000E+00
      -1046     6.09419E+00    -7.73201E+00     0.00000E+00     0.00000E+00         -0.00000E+00
      -1045     6.08255E+00    -7.72462E+00     0.00000E+00     0.00000E+00         -0.00000E+00
      -1044     6.07091E+00    -7.71723E+00     0.00000E+00     0.00000E+00         -0.00000E+00
      -1043     6.05929E+00    -7.70984E+00     0.00000E+00     0.00000E+00         -0.00000E+00
      -1042     6.04767E+00    -7.70245E+00     0.00000E+00    -0.00000E+00         -0.00000E+00
      -1041     6.03607E+00    -7.69505E+00     0.00000E+00     0.00000E+00         -0.00000E+00
      -1040     6.02448E+00    -7.68766E+00     0.00000E+00     0.00000E+00          0.00000E+00
      -1039     6.01290E+00    -7.68027E+00     0.00000E+00    -0.00000E+00         -0.00000E+00
      -1038     6.00133E+00    -7.67288E+00     0.00000E+00    -0.00000E+00         -0.00000E+00
      -1037     5.98977E+00    -7.66549E+00     0.00000E+00    -0.00000E+00         -0.00000E+00
      -1036     5.97823E+00    -7.65809E+00     0.00000E+00     0.00000E+00         -0.00000E+00
      -1035     5.96669E+00    -7.65070E+00     0.00000E+00     0.00000E+00         -0.00000E+00
      -1034     5.95517E+00    -7.64331E+00     0.00000E+00     0.00000E+00         -0.00000E+00
      -1033     5.94365E+00    -7.63592E+00     0.00000E+00     0.00000E+00         -0.00000E+00
      -1032     5.93215E+00    -7.62853E+00     0.00000E+00     0.00000E+00         -0.00000E+00
      -1031     5.92066E+00    -7.62113E+00     0.00000E+00     0.00000E+00         -0.00000E+00
      -1030     5.90918E+00    -7.61374E+00     0.00000E+00     0.00000E+00         -0.00000E+00
      -1029     5.89771E+00    -7.60635E+00     0.00000E+00     0.00000E+00         -0.00000E+00
      -1028     5.88625E+00    -7.59896E+00     0.00000E+00    -0.00000E+00         -0.00000E+00
      -1027     5.87481E+00    -7.59157E+00     0.00000E+00     0.00000E+00         -0.00000E+00
      -1026     5.86337E+00    -7.58417E+00     0.00000E+00    -0.00000E+00         -0.00000E+00
      -1025     5.85195E+00    -7.57678E+00     0.00000E+00     0.00000E+00         -0.00000E+00
      -1024     5.84054E+00    -7.56939E+00     0.00000E+00     0.00000E+00         -0.00000E+00
      -1023     5.82913E+00    -7.56200E+00     0.00000E+00     0.00000E+00          0.00000E+00
      -1022     5.81774E+00    -7.55461E+00     0.00000E+00     0.00000E+00         -0.00000E+00
      -1021     5.80637E+00    -7.54721E+00     0.00000E+00    -0.00000E+00         -0.00000E+00
      -1020     5.79500E+00    -7.53982E+00     0.00000E+00     0.00000E+00         -0.00000E+00
      -1019     5.78364E+00    -7.53243E+00     0.00000E+00     0.00000E+00         -0.00000E+00
      -1018     5.77229E+00    -7.52504E+00     0.00000E+00     0.00000E+00         -0.00000E+00
      -1017     5.76096E+00    -7.51765E+00     0.00000E+00     0.00000E+00          0.00000E+00
      -1016     5.74964E+00    -7.51025E+00     0.00000E+00     0.00000E+00         -0.00000E+00
      -1015     5.73832E+00    -7.50286E+00     0.00000E+00    -0.00000E+00         -0.00000E+00
      -1014     5.72702E+00    -7.49547E+00     0.00000E+00     0.00000E+00         -0.00000E+00
      -1013     5.71573E+00    -7.48808E+00     0.00000E+00     0.00000E+00         -0.00000E+00
      -1012     5.70445E+00    -7.48069E+00     0.00000E+00     0.00000E+00         -0.00000E+00
      -1011     5.69318E+00    -7.47329E+00     0.00000E+00     0.00000E+00         -0.00000E+00
      -1010     5.68193E+00    -7.46590E+00     0.00000E+00     0.00000E+00         -0.00000E+00
      -1009     5.67068E+00    -7.45851E+00     0.00000E+00    -0.00000E+00         -0.00000E+00
      -1008     5.65945E+00    -7.45112E+00     0.00000E+00     0.00000E+00         -0.00000E+00
      -1007     5.64822E+00    -7.44373E+00     0.00000E+00     0.00000E+00         -0.00000E+00
      -1006     5.63701E+00    -7.43633E+00     0.00000E+00     0.00000E+00          0.00000E+00
      -1005     5.62581E+00    -7.42894E+00     0.00000E+00     0.00000E+00         -0.00000E+00
      -1004     5.61462E+00    -7.42155E+00     0.00000E+00     0.00000E+00         -0.00000E+00
      -1003     5.60344E+00    -7.41416E+00     0.00000E+00     0.00000E+00          0.00000E+00
      -1002     5.59227E+00    -7.40677E+00     0.00000E+00     0.00000E+00         -0.00000E+00
      -1001     5.58112E+00    -7.39937E+00     0.00000E+00     0.00000E+00         -0.00000E+00
      -1000     5.56997E+00    -7.39198E+00     0.00000E+00     0.00000E+00         -0.00000E+00
       -999     5.55884E+00    -7.38459E+00     0.00000E+00     0.00000E+00         -0.00000E+00
       -998     5.54771E+00    -7.37720E+00     0.00000E+00    -0.00000E+00         -0.00000E+00
       -997     5.53660E+00    -7.36981E+00     0.00000E+00    -0.00000E+00         -0.00000E+00
       -996     5.52550E+00    -7.36241E+00     0.00000E+00    -0.00000E+00         -0.00000E+00
       -995     5.51441E+00    -7.35502E+00     0.00000E+00    -0.00000E+00         -0.00000E+00
       -994     5.50333E+00    -7.34763E+00     0.00000E+00     0.00000E+00         -0.00000E+00
       -993     5.49226E+00    -7.34024E+00     0.00000E+00     0.00000E+00         -0.00000E+00
       -992     5.48121E+00    -7.33285E+00     0.00000E+00    -0.00000E+00         -0.00000E+00
       -991     5.47016E+00    -7.32545E+00     0.00000E+00     0.00000E+00         -0.00000E+00
       -990     5.45913E+00    -7.31806E+00     0.00000E+00    -0.00000E+00         -0.00000E+00
       -989     5.44810E+00    -7.31067E+00     0.00000E+00     0.00000E+00          0.00000E+00
       -988     5.43709E+00    -7.30328E+00     0.00000E+00    -0.00000E+00         -0.00000E+00
       -987     5.42609E+00    -7.29589E+00     0.00000E+00     0.00000E+00          0.00000E+00
       -986     5.41510E+00    -7.28850E+00     0.00000E+00     0.00000E+00         -0.00000E+00
       -985     5.40412E+00    -7.28110E+00     0.00000E+00    -0.00000E+00         -0.00000E+00
       -984     5.39316E+00    -7.27371E+00     0.00000E+00     0.00000E+00         -0.00000E+00
       -983     5.38220E+00    -7.26632E+00     0.00000E+00     0.00000E+00          0.00000E+00
       -982     5.37126E+00    -7.25893E+00     0.00000E+00     0.00000E+00         -0.00000E+00
       -981     5.36032E+00    -7.25153E+00     0.00000E+00     0.00000E+00         -0.00000E+00
       -980     5.34940E+00    -7.24414E+00     0.00000E+00     0.00000E+00         -0.00000E+00
       -979     5.33849E+00    -7.23675E+00     0.00000E+00    -0.00000E+00         -0.00000E+00
       -978     5.32759E+00    -7.22936E+00     0.00000E+00     0.00000E+00         -0.00000E+00
       -977     5.31670E+00    -7.22197E+00     0.00000E+00    -0.00000E+00         -0.00000E+00
       -976     5.30582E+00    -7.21458E+00     0.00000E+00     0.00000E+00         -0.00000E+00
       -975     5.29495E+00    -7.20718E+00     0.00000E+00    -0.00000E+00         -0.00000E+00
       -974     5.28410E+00    -7.19979E+00     0.00000E+00     0.00000E+00         -0.00000E+00
       -973     5.27325E+00    -7.19240E+00     0.00000E+00     0.00000E+00         -0.00000E+00
       -972     5.26242E+00    -7.18501E+00     0.00000E+00     0.00000E+00         -0.00000E+00
       -971     5.25160E+00    -7.17762E+00     0.00000E+00     0.00000E+00         -0.00000E+00
       -970     5.24079E+00    -7.17022E+00     0.00000E+00     0.00000E+00         -0.00000E+00
       -969     5.22998E+00    -7.16283E+00     0.00000E+00     0.00000E+00         -0.00000E+00
       -968     5.21920E+00    -7.15544E+00     0.00000E+00     0.00000E+00          0.00000E+00
       -967     5.20842E+00    -7.14805E+00     0.00000E+00     0.00000E+00         -0.00000E+00
       -966     5.19765E+00    -7.14066E+00     0.00000E+00     0.00000E+00         -0.00000E+00
       -965     5.18690E+00    -7.13326E+00     0.00000E+00    -0.00000E+00         -0.00000E+00
       -964     5.17615E+00    -7.12587E+00     0.00000E+00     0.00000E+00         -0.00000E+00
       -963     5.16542E+00    -7.11848E+00     0.00000E+00    -0.00000E+00         -0.00000E+00
       -962     5.15470E+00    -7.11109E+00     0.00000E+00     0.00000E+00         -0.00000E+00
       -961     5.14398E+00    -7.10370E+00     0.00000E+00     0.00000E+00         -0.00000E+00
       -960     5.13328E+00    -7.09630E+00     0.00000E+00    -0.00000E+00         -0.00000E+00
       -959     5.12260E+00    -7.08891E+00     0.00000E+00     0.00000E+00          0.00000E+00
       -958     5.11192E+00    -7.08152E+00     0.00000E+00     0.00000E+00         -0.00000E+00
       -957     5.10125E+00    -7.07413E+00     0.00000E+00     0.00000E+00         -0.00000E+00
       -956     5.09060E+00    -7.06674E+00     0.00000E+00     0.00000E+00          0.00000E+00
       -955     5.07995E+00    -7.05934E+00     0.00000E+00     0.00000E+00          0.00000E+00
       -954     5.06932E+00    -7.05195E+00     0.00000E+00     0.00000E+00         -0.00000E+00
       -953     5.05870E+00    -7.04456E+00     0.00000E+00     0.00000E+00          0.00000E+00
       -952     5.04809E+00    -7.03717E+00     0.00000E+00     0.00000E+00         -0.00000E+00
       -951     5.03749E+00    -7.02978E+00     0.00000E+00    -0.00000E+00         -0.00000E+00
       -950     5.02690E+00    -7.02238E+00     0.00000E+00    -0.00000E+00         -0.00000E+00
       -949     5.01632E+00    -7.01499E+00     0.00000E+00     0.00000E+00         -0.00000E+00
       -948     5.00575E+00    -7.00760E+00     0.00000E+00     0.00000E+00         -0.00000E+00
       -947     4.99520E+00    -7.00021E+00     0.00000E+00    -0.00000E+00         -0.00000E+00
       -946     4.98466E+00    -6.99282E+00     0.00000E+00     0.00000E+00         -0.00000E+00
       -945     4.97412E+00    -6.98542E+00     0.00000E+00     0.00000E+00         -0.00000E+00
       -944     4.96360E+00    -6.97803E+00     0.00000E+00     0.00000E+00         -0.00000E+00
       -943     4.95309E+00    -6.97064E+00     0.00000E+00     0.00000E+00         -0.00000E+00
       -942     4.94259E+00    -6.96325E+00     0.00000E+00    -0.00000E+00         -0.00000E+00
       -941     4.93210E+00    -6.95586E+00     0.00000E+00     0.00000E+00         -0.00000E+00
       -940     4.92163E+00    -6.94846E+00     0.00000E+00    -0.00000E+00         -0.00000E+00
[...]
       4772   0.59650E+02       2.00470E+04       0.00000E+00       2.88580E+00       0.00000E+00      -2.85444E+04       0.00000E+00       0.00000E+00       2.00307E+04       0.00000E+00       2.84437E+04       0.00000E+00      -4.74309E+02       7.41027E-01       0.00000E+00      -6.85429E+03       0.00000E+00       3.20102E+01       0.00000E+00       0.00000E+00       2.71846E+04       0.00000E+00       1.68182E+05       0.00000E+00      -4.96887E+03      -2.72683E+04       0.00000E+00       1.63836E+01       0.00000E+00       1.66380E+05       0.00000E+00       0.00000E+00      -3.01511E+02       0.00000E+00      -6.21724E+03       0.00000E+00       7.96612E+06
       4773   0.59663E+02       2.06127E+04       0.00000E+00       6.36663E+00       0.00000E+00      -3.01552E+04       0.00000E+00       0.00000E+00       2.05830E+04       0.00000E+00       2.99316E+04       0.00000E+00      -1.01634E+03       1.64636E+00       0.00000E+00      -7.14147E+03       0.00000E+00       4.83159E+01       0.00000E+00       0.00000E+00       2.70556E+04       0.00000E+00       1.24291E+05       0.00000E+00      -9.71867E+03      -2.72205E+04       0.00000E+00       1.90814E+01       0.00000E+00       1.21666E+05       0.00000E+00       0.00000E+00      -6.43337E+02       0.00000E+00      -1.29444E+04       0.00000E+00       8.35860E+06
       4774   0.59675E+02       2.11505E+04       0.00000E+00       9.82820E+00       0.00000E+00      -3.17210E+04       0.00000E+00       0.00000E+00       2.11078E+04       0.00000E+00       3.13813E+04       0.00000E+00      -1.55527E+03       2.54631E+00       0.00000E+00      -7.42507E+03       0.00000E+00       6.44906E+01       0.00000E+00       0.00000E+00       2.68911E+04       0.00000E+00       8.14558E+04       0.00000E+00      -1.44398E+04      -2.71497E+04       0.00000E+00       2.17303E+01       0.00000E+00       7.85886E+04       0.00000E+00       0.00000E+00      -9.83162E+02       0.00000E+00      -1.96327E+04       0.00000E+00       8.72896E+06
       4775   0.59688E+02       2.16856E+04       0.00000E+00       1.32606E+01       0.00000E+00      -3.32747E+04       0.00000E+00       0.00000E+00       2.16300E+04       0.00000E+00       3.28142E+04       0.00000E+00      -2.08966E+03       3.43849E+00       0.00000E+00      -7.70892E+03       0.00000E+00       8.04872E+01       0.00000E+00       0.00000E+00       2.67250E+04       0.00000E+00       3.82669E+04       0.00000E+00      -1.91195E+04      -2.70647E+04       0.00000E+00       2.43176E+01       0.00000E+00       3.45988E+04       0.00000E+00       0.00000E+00      -1.32012E+03       0.00000E+00      -2.62636E+04       0.00000E+00       9.11021E+06
       4776   0.59700E+02       2.21916E+04       0.00000E+00       1.66534E+01       0.00000E+00      -3.47776E+04       0.00000E+00       0.00000E+00       2.21237E+04       0.00000E+00       3.42033E+04       0.00000E+00      -2.61777E+03       4.32000E+00       0.00000E+00      -7.98747E+03       0.00000E+00       9.62641E+01       0.00000E+00       0.00000E+00       2.65284E+04       0.00000E+00      -3.54987E+03       0.00000E+00      -2.37429E+04      -2.69611E+04       0.00000E+00       2.68465E+01       0.00000E+00      -7.45472E+03       0.00000E+00       0.00000E+00      -1.65308E+03       0.00000E+00      -3.28165E+04       0.00000E+00       9.46646E+06
       4777   0.59713E+02       2.26947E+04       0.00000E+00       1.99968E+01       0.00000E+00      -3.62608E+04       0.00000E+00       0.00000E+00       2.26138E+04       0.00000E+00       3.55689E+04       0.00000E+00      -3.13819E+03       5.18855E+00       0.00000E+00      -8.26462E+03       0.00000E+00       1.11776E+02       0.00000E+00       0.00000E+00       2.63347E+04       0.00000E+00      -4.55405E+04       0.00000E+00      -2.82977E+04      -2.68453E+04       0.00000E+00       2.93046E+01       0.00000E+00      -5.02176E+04       0.00000E+00       0.00000E+00      -1.98120E+03       0.00000E+00      -3.92732E+04       0.00000E+00       9.83389E+06
       4778   0.59725E+02       2.31676E+04       0.00000E+00       2.32805E+01       0.00000E+00      -3.76875E+04       0.00000E+00       0.00000E+00       2.30741E+04       0.00000E+00       3.68862E+04       0.00000E+00      -3.64925E+03       6.04129E+00       0.00000E+00      -8.53477E+03       0.00000E+00       1.26981E+02       0.00000E+00       0.00000E+00       2.61146E+04       0.00000E+00      -8.59068E+04       0.00000E+00      -3.27694E+04      -2.67145E+04       0.00000E+00       3.16954E+01       0.00000E+00      -9.08220E+04       0.00000E+00       0.00000E+00      -2.30336E+03       0.00000E+00      -4.56133E+04       0.00000E+00       1.01742E+07
       4779   0.59738E+02       2.36357E+04       0.00000E+00       2.64952E+01       0.00000E+00      -3.90906E+04       0.00000E+00       0.00000E+00       2.35303E+04       0.00000E+00       3.81754E+04       0.00000E+00      -4.14956E+03       6.87599E+00       0.00000E+00      -8.80185E+03       0.00000E+00       1.41837E+02       0.00000E+00       0.00000E+00       2.59028E+04       0.00000E+00      -1.26186E+05       0.00000E+00      -3.71460E+04      -2.65779E+04       0.00000E+00       3.40069E+01       0.00000E+00      -1.31817E+05       0.00000E+00       0.00000E+00      -2.61877E+03       0.00000E+00      -5.18196E+04       0.00000E+00       1.05229E+07
       4780   0.59750E+02       2.40725E+04       0.00000E+00       2.96310E+01       0.00000E+00      -4.04318E+04       0.00000E+00       0.00000E+00       2.39561E+04       0.00000E+00       3.94103E+04       0.00000E+00      -4.63751E+03       7.68993E+00       0.00000E+00      -9.06027E+03       0.00000E+00       1.56304E+02       0.00000E+00       0.00000E+00       2.56691E+04       0.00000E+00      -1.64605E+05       0.00000E+00      -4.14135E+04      -2.64311E+04       0.00000E+00       3.62427E+01       0.00000E+00      -1.70476E+05       0.00000E+00       0.00000E+00      -2.92634E+03       0.00000E+00      -5.78724E+04       0.00000E+00       1.08436E+07
       4781   0.59763E+02       2.45045E+04       0.00000E+00       3.26789E+01       0.00000E+00      -4.17418E+04       0.00000E+00       0.00000E+00       2.43759E+04       0.00000E+00       4.06142E+04       0.00000E+00      -5.11180E+03       8.48099E+00       0.00000E+00      -9.31404E+03       0.00000E+00       1.70340E+02       0.00000E+00       0.00000E+00       2.54465E+04       0.00000E+00      -2.02748E+05       0.00000E+00      -4.55606E+04      -2.62779E+04       0.00000E+00       3.83912E+01       0.00000E+00      -2.09290E+05       0.00000E+00       0.00000E+00      -3.22531E+03       0.00000E+00      -6.37551E+04       0.00000E+00       1.11713E+07
       4782   0.59775E+02       2.49039E+04       0.00000E+00       3.56296E+01       0.00000E+00      -4.29858E+04       0.00000E+00       0.00000E+00       2.47646E+04       0.00000E+00       4.17596E+04       0.00000E+00      -5.57088E+03       9.24658E+00       0.00000E+00      -9.55771E+03       0.00000E+00       1.83909E+02       0.00000E+00       0.00000E+00       2.52075E+04       0.00000E+00      -2.38797E+05       0.00000E+00      -4.95740E+04      -2.61188E+04       0.00000E+00       4.04566E+01       0.00000E+00      -2.45569E+05       0.00000E+00       0.00000E+00      -3.51466E+03       0.00000E+00      -6.94492E+04       0.00000E+00       1.14688E+07
       4783   0.59788E+02       2.52974E+04       0.00000E+00       3.84746E+01       0.00000E+00      -4.41936E+04       0.00000E+00       0.00000E+00       2.51471E+04       0.00000E+00       4.28668E+04       0.00000E+00      -6.01354E+03       9.98472E+00       0.00000E+00      -9.79495E+03       0.00000E+00       1.96972E+02       0.00000E+00       0.00000E+00       2.49821E+04       0.00000E+00      -2.74356E+05       0.00000E+00      -5.34431E+04      -2.59604E+04       0.00000E+00       4.24271E+01       0.00000E+00      -2.81748E+05       0.00000E+00       0.00000E+00      -3.79367E+03       0.00000E+00      -7.49390E+04       0.00000E+00       1.17729E+07
       4784   0.59800E+02       2.56580E+04       0.00000E+00       4.12052E+01       0.00000E+00      -4.53308E+04       0.00000E+00       0.00000E+00       2.54976E+04       0.00000E+00       4.39117E+04       0.00000E+00      -6.43834E+03       1.06930E+01       0.00000E+00      -1.00206E+04       0.00000E+00       2.09494E+02       0.00000E+00       0.00000E+00       2.47450E+04       0.00000E+00      -3.07664E+05       0.00000E+00      -5.71555E+04      -2.57988E+04       0.00000E+00       4.43074E+01       0.00000E+00      -3.15174E+05       0.00000E+00       0.00000E+00      -4.06139E+03       0.00000E+00      -8.02072E+04       0.00000E+00       1.20464E+07
       4785   0.59812E+02       2.60111E+04       0.00000E+00       4.38136E+01       0.00000E+00      -4.64260E+04       0.00000E+00       0.00000E+00       2.58408E+04       0.00000E+00       4.49157E+04       0.00000E+00      -6.84414E+03       1.13695E+01       0.00000E+00      -1.02387E+04       0.00000E+00       2.21439E+02       0.00000E+00       0.00000E+00       2.45256E+04       0.00000E+00      -3.40208E+05       0.00000E+00      -6.07013E+04      -2.56393E+04       0.00000E+00       4.60865E+01       0.00000E+00      -3.48375E+05       0.00000E+00       0.00000E+00      -4.31715E+03       0.00000E+00      -8.52395E+04       0.00000E+00       1.23225E+07
       4786   0.59825E+02       2.63305E+04       0.00000E+00       4.62918E+01       0.00000E+00      -4.74453E+04       0.00000E+00       0.00000E+00       2.61510E+04       0.00000E+00       4.58530E+04       0.00000E+00      -7.22962E+03       1.20121E+01       0.00000E+00      -1.04438E+04       0.00000E+00       2.32776E+02       0.00000E+00       0.00000E+00       2.42978E+04       0.00000E+00      -3.70278E+05       0.00000E+00      -6.40690E+04      -2.54814E+04       0.00000E+00       4.77691E+01       0.00000E+00      -3.78580E+05       0.00000E+00       0.00000E+00      -4.56007E+03       0.00000E+00      -9.00198E+04       0.00000E+00       1.25672E+07
       4787   0.59838E+02       2.66425E+04       0.00000E+00       4.86327E+01       0.00000E+00      -4.84211E+04       0.00000E+00       0.00000E+00       2.64541E+04       0.00000E+00       4.67453E+04       0.00000E+00      -7.59378E+03       1.26191E+01       0.00000E+00      -1.06398E+04       0.00000E+00       2.43471E+02       0.00000E+00       0.00000E+00       2.40919E+04       0.00000E+00      -3.99552E+05       0.00000E+00      -6.72500E+04      -2.53276E+04       0.00000E+00       4.93445E+01       0.00000E+00      -4.08418E+05       0.00000E+00       0.00000E+00      -4.78958E+03       0.00000E+00      -9.45352E+04       0.00000E+00       1.28150E+07
       4788   0.59850E+02       2.69201E+04       0.00000E+00       5.08291E+01       0.00000E+00      -4.93167E+04       0.00000E+00       0.00000E+00       2.67236E+04       0.00000E+00       4.75665E+04       0.00000E+00      -7.93539E+03       1.31884E+01       0.00000E+00      -1.08217E+04       0.00000E+00       2.53499E+02       0.00000E+00       0.00000E+00       2.38788E+04       0.00000E+00      -4.26175E+05       0.00000E+00      -7.02338E+04      -2.51785E+04       0.00000E+00       5.08178E+01       0.00000E+00      -4.35132E+05       0.00000E+00       0.00000E+00      -5.00484E+03       0.00000E+00      -9.87712E+04       0.00000E+00       1.30286E+07
       4789   0.59863E+02       2.71888E+04       0.00000E+00       5.28747E+01       0.00000E+00      -5.01627E+04       0.00000E+00       0.00000E+00       2.69845E+04       0.00000E+00       4.83411E+04       0.00000E+00      -8.25360E+03       1.37187E+01       0.00000E+00      -1.09933E+04       0.00000E+00       2.62828E+02       0.00000E+00       0.00000E+00       2.36939E+04       0.00000E+00      -4.51721E+05       0.00000E+00      -7.30127E+04      -2.50371E+04       0.00000E+00       5.21788E+01       0.00000E+00      -4.61196E+05       0.00000E+00       0.00000E+00      -5.20537E+03       0.00000E+00      -1.02717E+05       0.00000E+00       1.32459E+07
       4790   0.59875E+02       2.74227E+04       0.00000E+00       5.47632E+01       0.00000E+00      -5.09261E+04       0.00000E+00       0.00000E+00       2.72117E+04       0.00000E+00       4.90428E+04       0.00000E+00      -8.54731E+03       1.42082E+01       0.00000E+00      -1.11497E+04       0.00000E+00       2.71435E+02       0.00000E+00       0.00000E+00       2.35042E+04       0.00000E+00      -4.74508E+05       0.00000E+00      -7.55775E+04      -2.49020E+04       0.00000E+00       5.34328E+01       0.00000E+00      -4.84038E+05       0.00000E+00       0.00000E+00      -5.39044E+03       0.00000E+00      -1.06358E+05       0.00000E+00       1.34275E+07
       4791   0.59888E+02       2.76477E+04       0.00000E+00       5.64894E+01       0.00000E+00      -5.16365E+04       0.00000E+00       0.00000E+00       2.74299E+04       0.00000E+00       4.96908E+04       0.00000E+00      -8.81580E+03       1.46556E+01       0.00000E+00      -1.12949E+04       0.00000E+00       2.79295E+02       0.00000E+00       0.00000E+00       2.33435E+04       0.00000E+00      -4.96128E+05       0.00000E+00      -7.79218E+04      -2.47782E+04       0.00000E+00       5.45702E+01       0.00000E+00      -5.06125E+05       0.00000E+00       0.00000E+00      -5.55964E+03       0.00000E+00      -1.09687E+05       0.00000E+00       1.36112E+07
       4792   0.59900E+02       2.78370E+04       0.00000E+00       5.80477E+01       0.00000E+00      -5.22615E+04       0.00000E+00       0.00000E+00       2.76137E+04       0.00000E+00       5.02647E+04       0.00000E+00      -9.05814E+03       1.50594E+01       0.00000E+00      -1.14238E+04       0.00000E+00       2.86387E+02       0.00000E+00       0.00000E+00       2.31817E+04       0.00000E+00      -5.14840E+05       0.00000E+00      -8.00377E+04      -2.46613E+04       0.00000E+00       5.55967E+01       0.00000E+00      -5.24834E+05       0.00000E+00       0.00000E+00      -5.71233E+03       0.00000E+00      -1.12692E+05       0.00000E+00       1.37599E+07
       4793   0.59913E+02       2.80173E+04       0.00000E+00       5.94339E+01       0.00000E+00      -5.28306E+04       0.00000E+00       0.00000E+00       2.77884E+04       0.00000E+00       5.07836E+04       0.00000E+00      -9.27375E+03       1.54186E+01       0.00000E+00      -1.15407E+04       0.00000E+00       2.92691E+02       0.00000E+00       0.00000E+00       2.30507E+04       0.00000E+00      -5.32269E+05       0.00000E+00      -8.19199E+04      -2.45599E+04       0.00000E+00       5.65028E+01       0.00000E+00      -5.42685E+05       0.00000E+00       0.00000E+00      -5.84820E+03       0.00000E+00      -1.15365E+05       0.00000E+00       1.39075E+07
       4794   0.59925E+02       2.81613E+04       0.00000E+00       6.06436E+01       0.00000E+00      -5.33120E+04       0.00000E+00       0.00000E+00       2.79281E+04       0.00000E+00       5.12239E+04       0.00000E+00      -9.46185E+03       1.57320E+01       0.00000E+00      -1.16406E+04       0.00000E+00       2.98191E+02       0.00000E+00       0.00000E+00       2.29205E+04       0.00000E+00      -5.46680E+05       0.00000E+00      -8.35620E+04      -2.44685E+04       0.00000E+00       5.72949E+01       0.00000E+00      -5.57083E+05       0.00000E+00       0.00000E+00      -5.96671E+03       0.00000E+00      -1.17697E+05       0.00000E+00       1.40203E+07
       4795   0.59938E+02       2.82959E+04       0.00000E+00       6.16734E+01       0.00000E+00      -5.37349E+04       0.00000E+00       0.00000E+00       2.80586E+04       0.00000E+00       5.16109E+04       0.00000E+00      -9.62202E+03       1.59989E+01       0.00000E+00      -1.17278E+04       0.00000E+00       3.02869E+02       0.00000E+00       0.00000E+00       2.28238E+04       0.00000E+00      -5.59735E+05       0.00000E+00      -8.49602E+04      -2.43897E+04       0.00000E+00       5.79637E+01       0.00000E+00      -5.70479E+05       0.00000E+00       0.00000E+00      -6.06765E+03       0.00000E+00      -1.19683E+05       0.00000E+00       1.41322E+07
       4796   0.59950E+02       2.83938E+04       0.00000E+00       6.25200E+01       0.00000E+00      -5.40681E+04       0.00000E+00       0.00000E+00       2.81536E+04       0.00000E+00       5.19168E+04       0.00000E+00      -9.75367E+03       1.62182E+01       0.00000E+00      -1.17974E+04       0.00000E+00       3.06716E+02       0.00000E+00       0.00000E+00       2.27294E+04       0.00000E+00      -5.69672E+05       0.00000E+00      -8.61093E+04      -2.43234E+04       0.00000E+00       5.85158E+01       0.00000E+00      -5.80349E+05       0.00000E+00       0.00000E+00      -6.15058E+03       0.00000E+00      -1.21315E+05       0.00000E+00       1.42078E+07
       4797   0.59963E+02       2.84823E+04       0.00000E+00       6.31813E+01       0.00000E+00      -5.43418E+04       0.00000E+00       0.00000E+00       2.82393E+04       0.00000E+00       5.21662E+04       0.00000E+00      -9.85652E+03       1.63896E+01       0.00000E+00      -1.18539E+04       0.00000E+00       3.09718E+02       0.00000E+00       0.00000E+00       2.26690E+04       0.00000E+00      -5.78222E+05       0.00000E+00      -8.70071E+04      -2.42731E+04       0.00000E+00       5.89430E+01       0.00000E+00      -5.89179E+05       0.00000E+00       0.00000E+00      -6.21540E+03       0.00000E+00      -1.22590E+05       0.00000E+00       1.42831E+07
       4798   0.59975E+02       2.85338E+04       0.00000E+00       6.36549E+01       0.00000E+00      -5.45237E+04       0.00000E+00       0.00000E+00       2.82895E+04       0.00000E+00       5.23341E+04       0.00000E+00      -9.93015E+03       1.65122E+01       0.00000E+00      -1.18924E+04       0.00000E+00       3.11869E+02       0.00000E+00       0.00000E+00       2.26116E+04       0.00000E+00      -5.83653E+05       0.00000E+00      -8.76498E+04      -2.42347E+04       0.00000E+00       5.92519E+01       0.00000E+00      -5.94412E+05       0.00000E+00       0.00000E+00      -6.26178E+03       0.00000E+00      -1.23503E+05       0.00000E+00       1.43218E+07
       4799   0.59988E+02       2.85757E+04       0.00000E+00       6.39397E+01       0.00000E+00      -5.46465E+04       0.00000E+00       0.00000E+00       2.83299E+04       0.00000E+00       5.24449E+04       0.00000E+00      -9.97447E+03       1.65861E+01       0.00000E+00      -1.19173E+04       0.00000E+00       3.13161E+02       0.00000E+00       0.00000E+00       2.25905E+04       0.00000E+00      -5.87517E+05       0.00000E+00      -8.80366E+04      -2.42138E+04       0.00000E+00       5.94343E+01       0.00000E+00      -5.98583E+05       0.00000E+00       0.00000E+00      -6.28972E+03       0.00000E+00      -1.24052E+05       0.00000E+00       1.43590E+07
       4800   0.60000E+02       2.85807E+04       0.00000E+00       6.40347E+01       0.00000E+00      -5.46765E+04       0.00000E+00       0.00000E+00       2.83349E+04       0.00000E+00       5.24740E+04       0.00000E+00      -9.98921E+03       1.66106E+01       0.00000E+00      -1.19241E+04       0.00000E+00       3.13593E+02       0.00000E+00       0.00000E+00       2.25724E+04       0.00000E+00      -5.88240E+05       0.00000E+00      -8.81652E+04      -2.42048E+04       0.00000E+00       5.94977E+01       0.00000E+00      -5.99081E+05       0.00000E+00       0.00000E+00      -6.29899E+03       0.00000E+00      -1.24235E+05       0.00000E+00       1.43589E+07

This summary file was closed on 12-Oct-2022 at 14:49:03.

